[TITLE]
;; Rain Garden
;; 170319800001 Illinois, Cook County
;; Tract: 9800	Block Group: 001

[OPTIONS]
;;Option		Value
FLOW_UNITS		CFS
INFILTRATION		GREEN_AMPT
FLOW_ROUTING		KINWAVE
LINK_OFFSETS		DEPTH
MIN_SLOPE		0
ALLOW_PONDING		NO
SKIP_STEADY_STATE	NO

START_DATE		01/01/1981
START_TIME		00:00:00
REPORT_START_DATE	01/01/1981
REPORT_START_TIME	00:00:00
END_DATE		12/31/2014
END_TIME		23:59:59
SWEEP_START		01/01
SWEEP_END		12/31
DRY_DAYS		0
REPORT_STEP		01:00:00
WET_STEP		00:06:00
DRY_STEP		00:06:00
ROUTING_STEP		00:01:00

INERTIAL_DAMPING	PARTIAL
NORMAL_FLOW_LIMITED	BOTH
FORCE_MAIN_EQUATION	H-W
VARIABLE_STEP		0.75
LENGTHENING_STEP	0
MIN_SURFAREA		12.557
MAX_TRIALS		8
HEAD_TOLERANCE		0.005
SYS_FLOW_TOL		5
LAT_FLOW_TOL		5
MINIMUM_STEP		0.5
THREADS			1

[EVAPORATION]
;;DATA	Source	Parameters
;;------------------------
MONTHLY	0.019682632959949972	0.02629126631848812	0.046754532815372944	0.1036420015127182	0.15779854817652703	0.190120052516222	0.19130414870352744	0.15033754447102543	0.10281012672672271	0.05650530885238647	0.02763689118036032	0.017989829627901313	
DRY_ONLY	YES

[RAINGAGES]
;;Name	Format	Interval	SCF	Source
;;--------------------------------------------
RainGage2	VOLUME	24:00:00	1	TIMESERIES P_170760

[SUBCATCHMENTS]
;;Name	Rain Gage	Outlet	Area	%Imperv	Width	%Slope	CurbLen	SnowPack
;;------------------------------------------------------------------------------
Subcatch1	RainGage2	Outfall1	4933.82198249943	69.9930132972729	1432781.90371784	1.35923671722412	0
Subcatch2	RainGage2	Outfall1	0	100	0	0	0
Subcatch3	Raingage2	Outfall1	0.000	100	0	0	0
Subcatch4	RainGage2	Cisterns	0.000	100	0	0	0


[SUBAREAS]
;;Subcatch	N-Imperv	N-Perv	S-Imperv	S-Perv	PctZero	RouteTo	PctRouted
;;---------------------------------------------------------------------------------------
Subcatch1	0.01	.302550228704907	0.05	.205100457409814	0	OUTLET
Subcatch2	0	0	0	0	0	OUTLET
Subcatch3	0	0	0	6	0	OUTLET
Subcatch4	0	0	0	0	0	OUTLET

[INFILTRATION]
;;Subcatchment	Suction	Ksat	IMD
;;------------------------------------------------------
Subcatch1	10.4954120055828	.0406376667725071	.433286705072063
Subcatch2	10.4954120055828	.0406376667725071	.433286705072063
Subcatch3	10.4954120055828	.0406376667725071	.433286705072063
Subcatch4	10.4954120055828	.0406376667725071	.433286705072063

[LID_CONTROLS]
;;Name	Type/Layer	Parameters
;;--------------------------------------------
RainGarden	BC
RainGarden	SURFACE	6	0	0	0	0
RainGarden	SOIL	12	.47	.23	.1	2.19685	40.55	2.50053

RainGarden	STORAGE	0	0	.041514760029273	0
RainGarden	DRAIN	0	0.5	6	6

GreenRoof	BC
GreenRoof	SURFACE	0	0	0	0	0
GreenRoof	SOIL	4	0.45	0.1	0.05	10	10	1.6
GreenRoof	STORAGE	3	0.75	0	0
GreenRoof	DRAIN	10	0.5	0	0

StreetPlanter	BC
StreetPlanter	SURFACE	6	0	0	0	0
StreetPlanter	SOIL	18	0.45	0.1	0.05	10	10	1.6
StreetPlanter	STORAGE	12	0.75	0.108	0

PorousPavement	PP
PorousPavement	SURFACE	0.05	0	0.01	3	0
PorousPavement	PAVEMENT	6	0.12	0	400	0
PorousPavement	STORAGE	18	0.75	0.108	0

[LID_USAGE]
;;Subcatchment	LID	Process	Number	Area	Width	InitSat	FromImp	ToPerv	RptFile	DrainTo
Subcatch1	RainGarden	1	30085414.3335356	0	0	100	0


[JUNCTIONS]
;;Name	Elevation	MaxDepth	InitDepth	SurDepth	Aponded
;;---------------------------------------------------------
Cisterns	0	0	0	0	0

[OUTFALLS]
;;Name	Elevation	Type	Stage	Data	Gated	Routed	To
;;----------------------------------------------------------------------------
Outfall1	0	FREE	NO

[STORAGE]

[CONDUITS]

[XSECTIONS]

[TIMESERIES]
;;Name	Date	Time	Value
;;---------------------------
P_170760	01/01/1981	0:00:00	0.0
P_170760	01/02/1981	0:00:00	0.0
P_170760	01/03/1981	0:00:00	0.0
P_170760	01/04/1981	0:00:00	0.0
P_170760	01/05/1981	0:00:00	0.0
P_170760	01/06/1981	0:00:00	0.0
P_170760	01/07/1981	0:00:00	0.0
P_170760	01/08/1981	0:00:00	0.0
P_170760	01/09/1981	0:00:00	0.0
P_170760	01/10/1981	0:00:00	0.0
P_170760	01/11/1981	0:00:00	0.0
P_170760	01/12/1981	0:00:00	0.0
P_170760	01/13/1981	0:00:00	0.0
P_170760	01/14/1981	0:00:00	0.0
P_170760	01/15/1981	0:00:00	0.0
P_170760	01/16/1981	0:00:00	0.0
P_170760	01/17/1981	0:00:00	0.0
P_170760	01/18/1981	0:00:00	0.0
P_170760	01/19/1981	0:00:00	0.0
P_170760	01/20/1981	0:00:00	0.0
P_170760	01/21/1981	0:00:00	0.0
P_170760	01/22/1981	0:00:00	0.0
P_170760	01/23/1981	0:00:00	0.0
P_170760	01/24/1981	0:00:00	0.0
P_170760	01/25/1981	0:00:00	0.0
P_170760	01/26/1981	0:00:00	0.0
P_170760	01/27/1981	0:00:00	0.0
P_170760	01/28/1981	0:00:00	0.0
P_170760	01/29/1981	0:00:00	0.0
P_170760	01/30/1981	0:00:00	0.0
P_170760	01/31/1981	0:00:00	0.0
P_170760	02/01/1981	0:00:00	0.0
P_170760	02/02/1981	0:00:00	0.0
P_170760	02/03/1981	0:00:00	0.0
P_170760	02/04/1981	0:00:00	0.0
P_170760	02/05/1981	0:00:00	0.0
P_170760	02/06/1981	0:00:00	0.0
P_170760	02/07/1981	0:00:00	0.0
P_170760	02/08/1981	0:00:00	0.0
P_170760	02/09/1981	0:00:00	0.0
P_170760	02/10/1981	0:00:00	0.0
P_170760	02/11/1981	0:00:00	0.0
P_170760	02/12/1981	0:00:00	0.0
P_170760	02/13/1981	0:00:00	0.0
P_170760	02/14/1981	0:00:00	0.0
P_170760	02/15/1981	0:00:00	0.0
P_170760	02/16/1981	0:00:00	0.0
P_170760	02/17/1981	0:00:00	0.0
P_170760	02/18/1981	0:00:00	0.0
P_170760	02/19/1981	0:00:00	0.0
P_170760	02/20/1981	0:00:00	0.0
P_170760	02/21/1981	0:00:00	0.0
P_170760	02/22/1981	0:00:00	0.22125983858267698
P_170760	02/23/1981	0:00:00	0.264173228346457
P_170760	02/24/1981	0:00:00	0.0582677165354331
P_170760	02/25/1981	0:00:00	0.0
P_170760	02/26/1981	0:00:00	0.0
P_170760	02/27/1981	0:00:00	0.12992125984252
P_170760	02/28/1981	0:00:00	0.259055114173228
P_170760	03/01/1981	0:00:00	0.0
P_170760	03/02/1981	0:00:00	0.0
P_170760	03/03/1981	0:00:00	0.0
P_170760	03/04/1981	0:00:00	0.0
P_170760	03/05/1981	0:00:00	0.0
P_170760	03/06/1981	0:00:00	0.0
P_170760	03/07/1981	0:00:00	0.0
P_170760	03/08/1981	0:00:00	0.0
P_170760	03/09/1981	0:00:00	0.0
P_170760	03/10/1981	0:00:00	0.0
P_170760	03/11/1981	0:00:00	0.0
P_170760	03/12/1981	0:00:00	0.0
P_170760	03/13/1981	0:00:00	0.0
P_170760	03/14/1981	0:00:00	0.0
P_170760	03/15/1981	0:00:00	0.0
P_170760	03/16/1981	0:00:00	0.0
P_170760	03/17/1981	0:00:00	0.0
P_170760	03/18/1981	0:00:00	0.0
P_170760	03/19/1981	0:00:00	0.0
P_170760	03/20/1981	0:00:00	0.0
P_170760	03/21/1981	0:00:00	0.0
P_170760	03/22/1981	0:00:00	0.0
P_170760	03/23/1981	0:00:00	0.0
P_170760	03/24/1981	0:00:00	0.0
P_170760	03/25/1981	0:00:00	0.0
P_170760	03/26/1981	0:00:00	0.0259842519685039
P_170760	03/27/1981	0:00:00	0.0
P_170760	03/28/1981	0:00:00	0.0
P_170760	03/29/1981	0:00:00	0.021259842519685
P_170760	03/30/1981	0:00:00	0.256299220472441
P_170760	03/31/1981	0:00:00	0.0
P_170760	04/01/1981	0:00:00	0.0
P_170760	04/02/1981	0:00:00	0.0
P_170760	04/03/1981	0:00:00	0.0
P_170760	04/04/1981	0:00:00	0.277165354330709
P_170760	04/05/1981	0:00:00	0.0
P_170760	04/06/1981	0:00:00	0.0
P_170760	04/07/1981	0:00:00	0.0
P_170760	04/08/1981	0:00:00	0.0
P_170760	04/09/1981	0:00:00	0.495669299212598
P_170760	04/10/1981	0:00:00	0.0
P_170760	04/11/1981	0:00:00	0.518110228346457
P_170760	04/12/1981	0:00:00	0.313385826771654
P_170760	04/13/1981	0:00:00	0.340551165354331
P_170760	04/14/1981	0:00:00	0.497244098425197
P_170760	04/15/1981	0:00:00	0.0
P_170760	04/16/1981	0:00:00	0.0173228346456693
P_170760	04/17/1981	0:00:00	0.0141732283464567
P_170760	04/18/1981	0:00:00	0.0
P_170760	04/19/1981	0:00:00	0.0460629921259843
P_170760	04/20/1981	0:00:00	0.160629917322835
P_170760	04/21/1981	0:00:00	0.0
P_170760	04/22/1981	0:00:00	0.0
P_170760	04/23/1981	0:00:00	1.1606299015748
P_170760	04/24/1981	0:00:00	0.0346456692913386
P_170760	04/25/1981	0:00:00	0.0
P_170760	04/26/1981	0:00:00	0.00826771653543307
P_170760	04/27/1981	0:00:00	0.0
P_170760	04/28/1981	0:00:00	0.0515747992125984
P_170760	04/29/1981	0:00:00	1.04724411023622
P_170760	04/30/1981	0:00:00	0.0992125984251969
P_170760	05/01/1981	0:00:00	0.0574803149606299
P_170760	05/02/1981	0:00:00	0.0
P_170760	05/03/1981	0:00:00	0.0
P_170760	05/04/1981	0:00:00	0.0
P_170760	05/05/1981	0:00:00	0.0633858267716536
P_170760	05/06/1981	0:00:00	0.0
P_170760	05/07/1981	0:00:00	0.0
P_170760	05/08/1981	0:00:00	0.0
P_170760	05/09/1981	0:00:00	0.0
P_170760	05/10/1981	0:00:00	0.184645673228346
P_170760	05/11/1981	0:00:00	1.3751968622047201
P_170760	05/12/1981	0:00:00	0.0307086614173228
P_170760	05/13/1981	0:00:00	0.0
P_170760	05/14/1981	0:00:00	0.1
P_170760	05/15/1981	0:00:00	0.6704724685039369
P_170760	05/16/1981	0:00:00	0.0
P_170760	05/17/1981	0:00:00	0.0
P_170760	05/18/1981	0:00:00	0.0
P_170760	05/19/1981	0:00:00	0.0
P_170760	05/20/1981	0:00:00	0.0
P_170760	05/21/1981	0:00:00	0.0
P_170760	05/22/1981	0:00:00	0.0
P_170760	05/23/1981	0:00:00	0.0
P_170760	05/24/1981	0:00:00	0.352755905511811
P_170760	05/25/1981	0:00:00	0.0
P_170760	05/26/1981	0:00:00	0.0
P_170760	05/27/1981	0:00:00	0.0807086614173228
P_170760	05/28/1981	0:00:00	0.0
P_170760	05/29/1981	0:00:00	0.232677157480315
P_170760	05/30/1981	0:00:00	0.619291318897638
P_170760	05/31/1981	0:00:00	0.0
P_170760	06/01/1981	0:00:00	0.0
P_170760	06/02/1981	0:00:00	0.0
P_170760	06/03/1981	0:00:00	0.0
P_170760	06/04/1981	0:00:00	0.0
P_170760	06/05/1981	0:00:00	0.30196850787401597
P_170760	06/06/1981	0:00:00	0.0
P_170760	06/07/1981	0:00:00	0.0
P_170760	06/08/1981	0:00:00	0.0
P_170760	06/09/1981	0:00:00	0.5397637795275589
P_170760	06/10/1981	0:00:00	0.35511812992126
P_170760	06/11/1981	0:00:00	0.0
P_170760	06/12/1981	0:00:00	0.0
P_170760	06/13/1981	0:00:00	1.61811017716535
P_170760	06/14/1981	0:00:00	0.43425195669291294
P_170760	06/15/1981	0:00:00	0.0
P_170760	06/16/1981	0:00:00	0.227559062992126
P_170760	06/17/1981	0:00:00	0.0
P_170760	06/18/1981	0:00:00	0.0
P_170760	06/19/1981	0:00:00	0.0
P_170760	06/20/1981	0:00:00	0.0
P_170760	06/21/1981	0:00:00	0.0944881929133858
P_170760	06/22/1981	0:00:00	0.6732283622047239
P_170760	06/23/1981	0:00:00	0.0
P_170760	06/24/1981	0:00:00	0.424409437007874
P_170760	06/25/1981	0:00:00	0.00708661417322835
P_170760	06/26/1981	0:00:00	0.0393700787401575
P_170760	06/27/1981	0:00:00	0.0
P_170760	06/28/1981	0:00:00	0.0161417322834646
P_170760	06/29/1981	0:00:00	0.0192913385826772
P_170760	06/30/1981	0:00:00	0.474803165354331
P_170760	07/01/1981	0:00:00	0.0
P_170760	07/02/1981	0:00:00	0.0
P_170760	07/03/1981	0:00:00	0.0
P_170760	07/04/1981	0:00:00	0.0
P_170760	07/05/1981	0:00:00	0.00196850393700787
P_170760	07/06/1981	0:00:00	0.0
P_170760	07/07/1981	0:00:00	0.0
P_170760	07/08/1981	0:00:00	0.0
P_170760	07/09/1981	0:00:00	0.0
P_170760	07/10/1981	0:00:00	0.0
P_170760	07/11/1981	0:00:00	0.0
P_170760	07/12/1981	0:00:00	0.5980314803149611
P_170760	07/13/1981	0:00:00	1.10905512204724
P_170760	07/14/1981	0:00:00	0.3897637637795279
P_170760	07/15/1981	0:00:00	0.0
P_170760	07/16/1981	0:00:00	0.548818881889764
P_170760	07/17/1981	0:00:00	0.0
P_170760	07/18/1981	0:00:00	0.0
P_170760	07/19/1981	0:00:00	0.0
P_170760	07/20/1981	0:00:00	0.270078744094488
P_170760	07/21/1981	0:00:00	0.0047244094488189
P_170760	07/22/1981	0:00:00	0.0
P_170760	07/23/1981	0:00:00	0.0
P_170760	07/24/1981	0:00:00	0.0
P_170760	07/25/1981	0:00:00	0.0
P_170760	07/26/1981	0:00:00	0.7712598503937009
P_170760	07/27/1981	0:00:00	0.0
P_170760	07/28/1981	0:00:00	0.8251968149606299
P_170760	07/29/1981	0:00:00	0.0716535472440945
P_170760	07/30/1981	0:00:00	0.0
P_170760	07/31/1981	0:00:00	0.0
P_170760	08/01/1981	0:00:00	0.0
P_170760	08/02/1981	0:00:00	0.0
P_170760	08/03/1981	0:00:00	0.8673228622047241
P_170760	08/04/1981	0:00:00	0.0
P_170760	08/05/1981	0:00:00	0.0
P_170760	08/06/1981	0:00:00	0.11102361811023599
P_170760	08/07/1981	0:00:00	0.17952755511811
P_170760	08/08/1981	0:00:00	0.0433070866141732
P_170760	08/09/1981	0:00:00	0.0
P_170760	08/10/1981	0:00:00	0.425590566929134
P_170760	08/11/1981	0:00:00	0.0
P_170760	08/12/1981	0:00:00	0.0
P_170760	08/13/1981	0:00:00	0.0
P_170760	08/14/1981	0:00:00	0.293307078740157
P_170760	08/15/1981	0:00:00	2.12952756692913
P_170760	08/16/1981	0:00:00	0.015748031496063
P_170760	08/17/1981	0:00:00	0.0
P_170760	08/18/1981	0:00:00	0.0
P_170760	08/19/1981	0:00:00	0.0
P_170760	08/20/1981	0:00:00	0.0
P_170760	08/21/1981	0:00:00	0.0
P_170760	08/22/1981	0:00:00	0.0
P_170760	08/23/1981	0:00:00	0.0
P_170760	08/24/1981	0:00:00	0.0
P_170760	08/25/1981	0:00:00	0.0964566929133858
P_170760	08/26/1981	0:00:00	0.43937007086614205
P_170760	08/27/1981	0:00:00	0.39291336614173206
P_170760	08/28/1981	0:00:00	0.93858268503937
P_170760	08/29/1981	0:00:00	0.145275594488189
P_170760	08/30/1981	0:00:00	0.0881889763779528
P_170760	08/31/1981	0:00:00	0.0956692952755906
P_170760	09/01/1981	0:00:00	0.166929125984252
P_170760	09/02/1981	0:00:00	0.000393700787401575
P_170760	09/03/1981	0:00:00	0.0
P_170760	09/04/1981	0:00:00	0.0232283464566929
P_170760	09/05/1981	0:00:00	0.0
P_170760	09/06/1981	0:00:00	0.0
P_170760	09/07/1981	0:00:00	0.0
P_170760	09/08/1981	0:00:00	0.614960625984252
P_170760	09/09/1981	0:00:00	0.0
P_170760	09/10/1981	0:00:00	0.0
P_170760	09/11/1981	0:00:00	0.0
P_170760	09/12/1981	0:00:00	0.0
P_170760	09/13/1981	0:00:00	0.0
P_170760	09/14/1981	0:00:00	0.0
P_170760	09/15/1981	0:00:00	0.0
P_170760	09/16/1981	0:00:00	0.0
P_170760	09/17/1981	0:00:00	0.280314956692913
P_170760	09/18/1981	0:00:00	0.37755906299212605
P_170760	09/19/1981	0:00:00	0.0
P_170760	09/20/1981	0:00:00	0.0
P_170760	09/21/1981	0:00:00	0.0
P_170760	09/22/1981	0:00:00	0.0
P_170760	09/23/1981	0:00:00	0.0
P_170760	09/24/1981	0:00:00	0.0
P_170760	09/25/1981	0:00:00	0.113779531496063
P_170760	09/26/1981	0:00:00	0.27992126377952803
P_170760	09/27/1981	0:00:00	0.650393720472441
P_170760	09/28/1981	0:00:00	0.0
P_170760	09/29/1981	0:00:00	0.3566929291338579
P_170760	09/30/1981	0:00:00	0.0976377952755906
P_170760	10/01/1981	0:00:00	0.00078740157480315
P_170760	10/02/1981	0:00:00	0.0141732283464567
P_170760	10/03/1981	0:00:00	0.0
P_170760	10/04/1981	0:00:00	0.0937007913385827
P_170760	10/05/1981	0:00:00	0.0
P_170760	10/06/1981	0:00:00	0.148031496062992
P_170760	10/07/1981	0:00:00	0.0
P_170760	10/08/1981	0:00:00	0.0
P_170760	10/09/1981	0:00:00	0.0
P_170760	10/10/1981	0:00:00	0.0
P_170760	10/11/1981	0:00:00	0.0
P_170760	10/12/1981	0:00:00	0.0
P_170760	10/13/1981	0:00:00	0.0
P_170760	10/14/1981	0:00:00	0.0728346456692913
P_170760	10/15/1981	0:00:00	0.31496062992126
P_170760	10/16/1981	0:00:00	0.0208661417322835
P_170760	10/17/1981	0:00:00	0.0
P_170760	10/18/1981	0:00:00	0.568110248031496
P_170760	10/19/1981	0:00:00	0.0413385826771654
P_170760	10/20/1981	0:00:00	0.0
P_170760	10/21/1981	0:00:00	0.0
P_170760	10/22/1981	0:00:00	0.110236220472441
P_170760	10/23/1981	0:00:00	0.0
P_170760	10/24/1981	0:00:00	0.0
P_170760	10/25/1981	0:00:00	0.0
P_170760	10/26/1981	0:00:00	0.0
P_170760	10/27/1981	0:00:00	0.0
P_170760	10/28/1981	0:00:00	0.0
P_170760	10/29/1981	0:00:00	0.0
P_170760	10/30/1981	0:00:00	0.0
P_170760	10/31/1981	0:00:00	0.0
P_170760	11/01/1981	0:00:00	0.0
P_170760	11/02/1981	0:00:00	0.0366141732283465
P_170760	11/03/1981	0:00:00	0.0476377952755906
P_170760	11/04/1981	0:00:00	0.0
P_170760	11/05/1981	0:00:00	0.23425196062992104
P_170760	11/06/1981	0:00:00	0.0559055118110236
P_170760	11/07/1981	0:00:00	0.0
P_170760	11/08/1981	0:00:00	0.0
P_170760	11/09/1981	0:00:00	0.0
P_170760	11/10/1981	0:00:00	0.0
P_170760	11/11/1981	0:00:00	0.0
P_170760	11/12/1981	0:00:00	0.0
P_170760	11/13/1981	0:00:00	0.0
P_170760	11/14/1981	0:00:00	0.0
P_170760	11/15/1981	0:00:00	0.0
P_170760	11/16/1981	0:00:00	0.0
P_170760	11/17/1981	0:00:00	0.0
P_170760	11/18/1981	0:00:00	0.0
P_170760	11/19/1981	0:00:00	0.0102362204724409
P_170760	11/20/1981	0:00:00	0.828346492125984
P_170760	11/21/1981	0:00:00	0.0
P_170760	11/22/1981	0:00:00	0.0
P_170760	11/23/1981	0:00:00	0.0
P_170760	11/24/1981	0:00:00	0.0
P_170760	11/25/1981	0:00:00	0.0
P_170760	11/26/1981	0:00:00	0.0110236220472441
P_170760	11/27/1981	0:00:00	0.23740158267716502
P_170760	11/28/1981	0:00:00	0.0
P_170760	11/29/1981	0:00:00	0.0
P_170760	11/30/1981	0:00:00	0.0
P_170760	12/01/1981	0:00:00	0.0
P_170760	12/02/1981	0:00:00	0.10393701181102401
P_170760	12/03/1981	0:00:00	0.0
P_170760	12/04/1981	0:00:00	0.0
P_170760	12/05/1981	0:00:00	0.0
P_170760	12/06/1981	0:00:00	0.0
P_170760	12/07/1981	0:00:00	0.0
P_170760	12/08/1981	0:00:00	0.0
P_170760	12/09/1981	0:00:00	0.0
P_170760	12/10/1981	0:00:00	0.0
P_170760	12/11/1981	0:00:00	0.0
P_170760	12/12/1981	0:00:00	0.0
P_170760	12/13/1981	0:00:00	0.0
P_170760	12/14/1981	0:00:00	0.0173228346456693
P_170760	12/15/1981	0:00:00	0.0
P_170760	12/16/1981	0:00:00	0.0
P_170760	12/17/1981	0:00:00	0.0
P_170760	12/18/1981	0:00:00	0.0
P_170760	12/19/1981	0:00:00	0.0
P_170760	12/20/1981	0:00:00	0.0
P_170760	12/21/1981	0:00:00	0.0
P_170760	12/22/1981	0:00:00	0.0
P_170760	12/23/1981	0:00:00	0.0
P_170760	12/24/1981	0:00:00	0.0
P_170760	12/25/1981	0:00:00	0.0
P_170760	12/26/1981	0:00:00	0.0
P_170760	12/27/1981	0:00:00	0.0
P_170760	12/28/1981	0:00:00	0.0
P_170760	12/29/1981	0:00:00	0.0
P_170760	12/30/1981	0:00:00	0.0
P_170760	12/31/1981	0:00:00	0.0
P_170760	01/01/1982	0:00:00	0.0
P_170760	01/02/1982	0:00:00	0.0
P_170760	01/03/1982	0:00:00	0.0
P_170760	01/04/1982	0:00:00	0.0
P_170760	01/05/1982	0:00:00	0.0
P_170760	01/06/1982	0:00:00	0.0
P_170760	01/07/1982	0:00:00	0.0
P_170760	01/08/1982	0:00:00	0.0
P_170760	01/09/1982	0:00:00	0.0
P_170760	01/10/1982	0:00:00	0.0
P_170760	01/11/1982	0:00:00	0.0
P_170760	01/12/1982	0:00:00	0.0
P_170760	01/13/1982	0:00:00	0.0
P_170760	01/14/1982	0:00:00	0.0
P_170760	01/15/1982	0:00:00	0.0
P_170760	01/16/1982	0:00:00	0.0
P_170760	01/17/1982	0:00:00	0.0
P_170760	01/18/1982	0:00:00	0.0
P_170760	01/19/1982	0:00:00	0.0
P_170760	01/20/1982	0:00:00	0.0
P_170760	01/21/1982	0:00:00	0.0
P_170760	01/22/1982	0:00:00	0.0
P_170760	01/23/1982	0:00:00	0.0
P_170760	01/24/1982	0:00:00	0.0
P_170760	01/25/1982	0:00:00	0.0
P_170760	01/26/1982	0:00:00	0.0
P_170760	01/27/1982	0:00:00	0.0
P_170760	01/28/1982	0:00:00	0.0
P_170760	01/29/1982	0:00:00	0.0
P_170760	01/30/1982	0:00:00	0.0
P_170760	01/31/1982	0:00:00	0.0
P_170760	02/01/1982	0:00:00	0.0
P_170760	02/02/1982	0:00:00	0.0
P_170760	02/03/1982	0:00:00	0.0
P_170760	02/04/1982	0:00:00	0.0
P_170760	02/05/1982	0:00:00	0.0
P_170760	02/06/1982	0:00:00	0.0
P_170760	02/07/1982	0:00:00	0.0
P_170760	02/08/1982	0:00:00	0.0
P_170760	02/09/1982	0:00:00	0.0
P_170760	02/10/1982	0:00:00	0.0
P_170760	02/11/1982	0:00:00	0.0
P_170760	02/12/1982	0:00:00	0.0
P_170760	02/13/1982	0:00:00	0.0
P_170760	02/14/1982	0:00:00	0.0
P_170760	02/15/1982	0:00:00	0.0
P_170760	02/16/1982	0:00:00	0.0
P_170760	02/17/1982	0:00:00	0.0283464566929134
P_170760	02/18/1982	0:00:00	0.0
P_170760	02/19/1982	0:00:00	0.0
P_170760	02/20/1982	0:00:00	0.0
P_170760	02/21/1982	0:00:00	0.0
P_170760	02/22/1982	0:00:00	0.0
P_170760	02/23/1982	0:00:00	0.0
P_170760	02/24/1982	0:00:00	0.0
P_170760	02/25/1982	0:00:00	0.0
P_170760	02/26/1982	0:00:00	0.0
P_170760	02/27/1982	0:00:00	0.0
P_170760	02/28/1982	0:00:00	0.0
P_170760	03/01/1982	0:00:00	0.0
P_170760	03/02/1982	0:00:00	0.24251967716535397
P_170760	03/03/1982	0:00:00	0.0
P_170760	03/04/1982	0:00:00	0.0
P_170760	03/05/1982	0:00:00	0.0
P_170760	03/06/1982	0:00:00	0.0
P_170760	03/07/1982	0:00:00	0.0
P_170760	03/08/1982	0:00:00	0.0
P_170760	03/09/1982	0:00:00	0.0
P_170760	03/10/1982	0:00:00	0.0
P_170760	03/11/1982	0:00:00	0.0425196850393701
P_170760	03/12/1982	0:00:00	0.0216535433070866
P_170760	03/13/1982	0:00:00	0.643700803149606
P_170760	03/14/1982	0:00:00	0.0
P_170760	03/15/1982	0:00:00	0.015748031496063
P_170760	03/16/1982	0:00:00	0.4767716417322829
P_170760	03/17/1982	0:00:00	0.0
P_170760	03/18/1982	0:00:00	0.0
P_170760	03/19/1982	0:00:00	0.0488188976377953
P_170760	03/20/1982	0:00:00	0.0
P_170760	03/21/1982	0:00:00	0.0
P_170760	03/22/1982	0:00:00	0.0
P_170760	03/23/1982	0:00:00	0.0
P_170760	03/24/1982	0:00:00	0.0838582716535433
P_170760	03/25/1982	0:00:00	0.0
P_170760	03/26/1982	0:00:00	0.0
P_170760	03/27/1982	0:00:00	0.0
P_170760	03/28/1982	0:00:00	0.0
P_170760	03/29/1982	0:00:00	0.0
P_170760	03/30/1982	0:00:00	0.106299212598425
P_170760	03/31/1982	0:00:00	0.563779515748032
P_170760	04/01/1982	0:00:00	0.0
P_170760	04/02/1982	0:00:00	0.0263779527559055
P_170760	04/03/1982	0:00:00	1.10275591338583
P_170760	04/04/1982	0:00:00	0.0
P_170760	04/05/1982	0:00:00	0.0
P_170760	04/06/1982	0:00:00	0.0
P_170760	04/07/1982	0:00:00	0.0
P_170760	04/08/1982	0:00:00	0.0
P_170760	04/09/1982	0:00:00	0.0
P_170760	04/10/1982	0:00:00	0.0062992125984252
P_170760	04/11/1982	0:00:00	0.0
P_170760	04/12/1982	0:00:00	0.0
P_170760	04/13/1982	0:00:00	0.0
P_170760	04/14/1982	0:00:00	0.0
P_170760	04/15/1982	0:00:00	0.0
P_170760	04/16/1982	0:00:00	0.266535433070866
P_170760	04/17/1982	0:00:00	0.9346456614173231
P_170760	04/18/1982	0:00:00	0.0
P_170760	04/19/1982	0:00:00	0.0
P_170760	04/20/1982	0:00:00	0.0594488188976378
P_170760	04/21/1982	0:00:00	0.0
P_170760	04/22/1982	0:00:00	0.0
P_170760	04/23/1982	0:00:00	0.0
P_170760	04/24/1982	0:00:00	0.0
P_170760	04/25/1982	0:00:00	0.0
P_170760	04/26/1982	0:00:00	0.0
P_170760	04/27/1982	0:00:00	0.0
P_170760	04/28/1982	0:00:00	0.0
P_170760	04/29/1982	0:00:00	0.0
P_170760	04/30/1982	0:00:00	0.0
P_170760	05/01/1982	0:00:00	0.0
P_170760	05/02/1982	0:00:00	0.0
P_170760	05/03/1982	0:00:00	0.0
P_170760	05/04/1982	0:00:00	0.0
P_170760	05/05/1982	0:00:00	0.0484251968503937
P_170760	05/06/1982	0:00:00	0.0846456732283465
P_170760	05/07/1982	0:00:00	0.0161417322834646
P_170760	05/08/1982	0:00:00	0.0
P_170760	05/09/1982	0:00:00	0.0
P_170760	05/10/1982	0:00:00	0.0
P_170760	05/11/1982	0:00:00	0.0
P_170760	05/12/1982	0:00:00	0.43661418110236205
P_170760	05/13/1982	0:00:00	0.0
P_170760	05/14/1982	0:00:00	0.0
P_170760	05/15/1982	0:00:00	0.0
P_170760	05/16/1982	0:00:00	0.654724377952756
P_170760	05/17/1982	0:00:00	0.0
P_170760	05/18/1982	0:00:00	0.0
P_170760	05/19/1982	0:00:00	0.0724409448818898
P_170760	05/20/1982	0:00:00	0.35472441732283505
P_170760	05/21/1982	0:00:00	0.0
P_170760	05/22/1982	0:00:00	1.05984252362205
P_170760	05/23/1982	0:00:00	0.0
P_170760	05/24/1982	0:00:00	0.0118110236220472
P_170760	05/25/1982	0:00:00	0.0
P_170760	05/26/1982	0:00:00	0.0385826771653543
P_170760	05/27/1982	0:00:00	0.32637795275590503
P_170760	05/28/1982	0:00:00	0.529133842519685
P_170760	05/29/1982	0:00:00	0.0
P_170760	05/30/1982	0:00:00	0.40511811023621996
P_170760	05/31/1982	0:00:00	0.0
P_170760	06/01/1982	0:00:00	0.280314956692913
P_170760	06/02/1982	0:00:00	0.0
P_170760	06/03/1982	0:00:00	0.0
P_170760	06/04/1982	0:00:00	0.021259842519685
P_170760	06/05/1982	0:00:00	0.0
P_170760	06/06/1982	0:00:00	0.0
P_170760	06/07/1982	0:00:00	0.0102362204724409
P_170760	06/08/1982	0:00:00	0.0
P_170760	06/09/1982	0:00:00	0.0
P_170760	06/10/1982	0:00:00	0.0
P_170760	06/11/1982	0:00:00	0.0
P_170760	06/12/1982	0:00:00	0.0
P_170760	06/13/1982	0:00:00	0.0
P_170760	06/14/1982	0:00:00	0.0
P_170760	06/15/1982	0:00:00	1.0177165511811
P_170760	06/16/1982	0:00:00	0.0917322795275591
P_170760	06/17/1982	0:00:00	0.0
P_170760	06/18/1982	0:00:00	0.0106299212598425
P_170760	06/19/1982	0:00:00	0.476377968503937
P_170760	06/20/1982	0:00:00	0.0
P_170760	06/21/1982	0:00:00	0.0137795275590551
P_170760	06/22/1982	0:00:00	0.0921259803149606
P_170760	06/23/1982	0:00:00	0.0
P_170760	06/24/1982	0:00:00	0.0
P_170760	06/25/1982	0:00:00	0.0
P_170760	06/26/1982	0:00:00	0.47834644094488205
P_170760	06/27/1982	0:00:00	0.00590551181102362
P_170760	06/28/1982	0:00:00	0.32637795275590503
P_170760	06/29/1982	0:00:00	0.0440944881889764
P_170760	06/30/1982	0:00:00	0.0460629921259843
P_170760	07/01/1982	0:00:00	0.0
P_170760	07/02/1982	0:00:00	0.0
P_170760	07/03/1982	0:00:00	0.541338582677165
P_170760	07/04/1982	0:00:00	0.0
P_170760	07/05/1982	0:00:00	0.0
P_170760	07/06/1982	0:00:00	0.0
P_170760	07/07/1982	0:00:00	1.2948818661417298
P_170760	07/08/1982	0:00:00	0.0
P_170760	07/09/1982	0:00:00	0.0
P_170760	07/10/1982	0:00:00	0.0
P_170760	07/11/1982	0:00:00	0.569291338582677
P_170760	07/12/1982	0:00:00	0.0
P_170760	07/13/1982	0:00:00	0.0377952755905512
P_170760	07/14/1982	0:00:00	0.0433070866141732
P_170760	07/15/1982	0:00:00	0.19488188188976396
P_170760	07/16/1982	0:00:00	0.0
P_170760	07/17/1982	0:00:00	0.39685038976378
P_170760	07/18/1982	0:00:00	0.0
P_170760	07/19/1982	0:00:00	0.370866145669291
P_170760	07/20/1982	0:00:00	0.0
P_170760	07/21/1982	0:00:00	0.0220472440944882
P_170760	07/22/1982	0:00:00	1.69724411811024
P_170760	07/23/1982	0:00:00	0.642519673228346
P_170760	07/24/1982	0:00:00	0.0
P_170760	07/25/1982	0:00:00	0.0
P_170760	07/26/1982	0:00:00	0.0
P_170760	07/27/1982	0:00:00	0.0
P_170760	07/28/1982	0:00:00	0.47204723622047207
P_170760	07/29/1982	0:00:00	0.0
P_170760	07/30/1982	0:00:00	0.0
P_170760	07/31/1982	0:00:00	0.0
P_170760	08/01/1982	0:00:00	0.0
P_170760	08/02/1982	0:00:00	0.33582675984252
P_170760	08/03/1982	0:00:00	0.0
P_170760	08/04/1982	0:00:00	0.7255905629921261
P_170760	08/05/1982	0:00:00	0.19842519685039398
P_170760	08/06/1982	0:00:00	0.198031503937008
P_170760	08/07/1982	0:00:00	0.0
P_170760	08/08/1982	0:00:00	1.15787400787402
P_170760	08/09/1982	0:00:00	0.0
P_170760	08/10/1982	0:00:00	0.0
P_170760	08/11/1982	0:00:00	0.0
P_170760	08/12/1982	0:00:00	0.0
P_170760	08/13/1982	0:00:00	0.0
P_170760	08/14/1982	0:00:00	0.0
P_170760	08/15/1982	0:00:00	0.0
P_170760	08/16/1982	0:00:00	0.0
P_170760	08/17/1982	0:00:00	0.0
P_170760	08/18/1982	0:00:00	0.0
P_170760	08/19/1982	0:00:00	0.0
P_170760	08/20/1982	0:00:00	0.0161417322834646
P_170760	08/21/1982	0:00:00	0.0
P_170760	08/22/1982	0:00:00	0.0
P_170760	08/23/1982	0:00:00	0.0
P_170760	08/24/1982	0:00:00	0.0
P_170760	08/25/1982	0:00:00	0.28425196062992103
P_170760	08/26/1982	0:00:00	0.0
P_170760	08/27/1982	0:00:00	0.0
P_170760	08/28/1982	0:00:00	0.0
P_170760	08/29/1982	0:00:00	0.0
P_170760	08/30/1982	0:00:00	0.0578740157480315
P_170760	08/31/1982	0:00:00	0.062992125984252
P_170760	09/01/1982	0:00:00	0.179921267716535
P_170760	09/02/1982	0:00:00	0.13976377952755897
P_170760	09/03/1982	0:00:00	0.0
P_170760	09/04/1982	0:00:00	0.0
P_170760	09/05/1982	0:00:00	0.0
P_170760	09/06/1982	0:00:00	0.0
P_170760	09/07/1982	0:00:00	0.29921259448818893
P_170760	09/08/1982	0:00:00	0.0
P_170760	09/09/1982	0:00:00	0.0
P_170760	09/10/1982	0:00:00	0.0
P_170760	09/11/1982	0:00:00	0.0
P_170760	09/12/1982	0:00:00	0.0
P_170760	09/13/1982	0:00:00	0.0
P_170760	09/14/1982	0:00:00	0.0795275590551181
P_170760	09/15/1982	0:00:00	0.0
P_170760	09/16/1982	0:00:00	0.0
P_170760	09/17/1982	0:00:00	0.18110235826771698
P_170760	09/18/1982	0:00:00	0.48149604330708706
P_170760	09/19/1982	0:00:00	0.0
P_170760	09/20/1982	0:00:00	0.0854330748031496
P_170760	09/21/1982	0:00:00	0.0
P_170760	09/22/1982	0:00:00	0.0102362204724409
P_170760	09/23/1982	0:00:00	0.0
P_170760	09/24/1982	0:00:00	0.0169291338582677
P_170760	09/25/1982	0:00:00	0.0
P_170760	09/26/1982	0:00:00	0.0
P_170760	09/27/1982	0:00:00	0.0
P_170760	09/28/1982	0:00:00	0.0
P_170760	09/29/1982	0:00:00	0.0
P_170760	09/30/1982	0:00:00	0.0
P_170760	10/01/1982	0:00:00	0.0
P_170760	10/02/1982	0:00:00	0.0
P_170760	10/03/1982	0:00:00	0.0
P_170760	10/04/1982	0:00:00	0.0
P_170760	10/05/1982	0:00:00	0.0
P_170760	10/06/1982	0:00:00	0.0
P_170760	10/07/1982	0:00:00	0.19527559055118102
P_170760	10/08/1982	0:00:00	0.0
P_170760	10/09/1982	0:00:00	0.572047232283465
P_170760	10/10/1982	0:00:00	0.150393696850394
P_170760	10/11/1982	0:00:00	0.0
P_170760	10/12/1982	0:00:00	0.0
P_170760	10/13/1982	0:00:00	0.0
P_170760	10/14/1982	0:00:00	0.0
P_170760	10/15/1982	0:00:00	0.012992125984252
P_170760	10/16/1982	0:00:00	0.0173228346456693
P_170760	10/17/1982	0:00:00	0.0
P_170760	10/18/1982	0:00:00	0.0173228346456693
P_170760	10/19/1982	0:00:00	0.0
P_170760	10/20/1982	0:00:00	0.8055117755905509
P_170760	10/21/1982	0:00:00	0.0
P_170760	10/22/1982	0:00:00	0.0
P_170760	10/23/1982	0:00:00	0.0
P_170760	10/24/1982	0:00:00	0.0
P_170760	10/25/1982	0:00:00	0.0
P_170760	10/26/1982	0:00:00	0.0
P_170760	10/27/1982	0:00:00	0.0
P_170760	10/28/1982	0:00:00	0.00354330708661417
P_170760	10/29/1982	0:00:00	0.0283464566929134
P_170760	10/30/1982	0:00:00	0.0
P_170760	10/31/1982	0:00:00	0.11771653543307099
P_170760	11/01/1982	0:00:00	0.401968503937008
P_170760	11/02/1982	0:00:00	1.5362204921259799
P_170760	11/03/1982	0:00:00	0.015748031496063
P_170760	11/04/1982	0:00:00	0.0
P_170760	11/05/1982	0:00:00	0.0
P_170760	11/06/1982	0:00:00	0.0
P_170760	11/07/1982	0:00:00	0.0
P_170760	11/08/1982	0:00:00	0.0
P_170760	11/09/1982	0:00:00	0.344488188976378
P_170760	11/10/1982	0:00:00	0.399212610236221
P_170760	11/11/1982	0:00:00	0.0448818897637795
P_170760	11/12/1982	0:00:00	0.969685007874016
P_170760	11/13/1982	0:00:00	0.0
P_170760	11/14/1982	0:00:00	0.0
P_170760	11/15/1982	0:00:00	0.0
P_170760	11/16/1982	0:00:00	0.0
P_170760	11/17/1982	0:00:00	0.0
P_170760	11/18/1982	0:00:00	0.00590551181102362
P_170760	11/19/1982	0:00:00	0.137007874015748
P_170760	11/20/1982	0:00:00	0.4066929094488189
P_170760	11/21/1982	0:00:00	0.0401574803149606
P_170760	11/22/1982	0:00:00	0.0
P_170760	11/23/1982	0:00:00	0.296062992125984
P_170760	11/24/1982	0:00:00	0.0
P_170760	11/25/1982	0:00:00	0.0
P_170760	11/26/1982	0:00:00	0.0
P_170760	11/27/1982	0:00:00	0.0
P_170760	11/28/1982	0:00:00	0.0
P_170760	11/29/1982	0:00:00	0.15629921259842497
P_170760	11/30/1982	0:00:00	0.00078740157480315
P_170760	12/01/1982	0:00:00	0.0
P_170760	12/02/1982	0:00:00	0.648425169291339
P_170760	12/03/1982	0:00:00	2.67165356692913
P_170760	12/04/1982	0:00:00	0.101574799212598
P_170760	12/05/1982	0:00:00	0.595275586614173
P_170760	12/06/1982	0:00:00	0.222834637795276
P_170760	12/07/1982	0:00:00	0.0
P_170760	12/08/1982	0:00:00	0.0
P_170760	12/09/1982	0:00:00	0.0
P_170760	12/10/1982	0:00:00	0.0
P_170760	12/11/1982	0:00:00	0.0
P_170760	12/12/1982	0:00:00	0.0
P_170760	12/13/1982	0:00:00	0.0
P_170760	12/14/1982	0:00:00	0.0
P_170760	12/15/1982	0:00:00	0.0251968503937008
P_170760	12/16/1982	0:00:00	0.0
P_170760	12/17/1982	0:00:00	0.0
P_170760	12/18/1982	0:00:00	0.0
P_170760	12/19/1982	0:00:00	0.0
P_170760	12/20/1982	0:00:00	0.0
P_170760	12/21/1982	0:00:00	0.0
P_170760	12/22/1982	0:00:00	0.0
P_170760	12/23/1982	0:00:00	0.0
P_170760	12/24/1982	0:00:00	0.132283460629921
P_170760	12/25/1982	0:00:00	1.2751968267716498
P_170760	12/26/1982	0:00:00	0.0259842519685039
P_170760	12/27/1982	0:00:00	0.0
P_170760	12/28/1982	0:00:00	0.173622039370079
P_170760	12/29/1982	0:00:00	0.0
P_170760	12/30/1982	0:00:00	0.0
P_170760	12/31/1982	0:00:00	0.0