[TITLE]
;; No Green Infrastructure
;; 060375508003 California, Los Angeles County
;; Tract: 5508	Block Group: 003

[OPTIONS]
;;Option		Value
FLOW_UNITS		CFS
INFILTRATION		GREEN_AMPT
FLOW_ROUTING		KINWAVE
LINK_OFFSETS		DEPTH
MIN_SLOPE		0
ALLOW_PONDING		NO
SKIP_STEADY_STATE	NO

START_DATE		01/01/2014
START_TIME		00:00:00
REPORT_START_DATE	01/01/2014
REPORT_START_TIME	00:00:00
END_DATE		12/31/2014
END_TIME		23:59:59
SWEEP_START		01/01
SWEEP_END		12/31
DRY_DAYS		0
REPORT_STEP		01:00:00
WET_STEP		00:06:00
DRY_STEP		00:06:00
ROUTING_STEP		00:01:00

INERTIAL_DAMPING	PARTIAL
NORMAL_FLOW_LIMITED	BOTH
FORCE_MAIN_EQUATION	H-W
VARIABLE_STEP		0.75
LENGTHENING_STEP	0
MIN_SURFAREA		12.557
MAX_TRIALS		8
HEAD_TOLERANCE		0.005
SYS_FLOW_TOL		5
LAT_FLOW_TOL		5
MINIMUM_STEP		0.5
THREADS			1

[EVAPORATION]
;;DATA	Source	Parameters
;;------------------------
MONTHLY	0.02840875532053113	0.04707423916140794	0.068459594704175	0.07406164586727619	0.0534189552128911	0.03439860061321258	0.028088274583023785	0.020534808535724883	0.014967937038555743	0.013805488612863421	0.016207279017490146	0.01981801536244154	
DRY_ONLY	YES

[RAINGAGES]
;;Name	Format	Interval	SCF	Source
;;--------------------------------------------
RainGage2	VOLUME	03:00:00	1	TIMESERIES NARR_3HR

[SUBCATCHMENTS]
;;Name	Rain Gage	Outlet	Area	%Imperv	Width	%Slope	CurbLen	SnowPack
;;------------------------------------------------------------------------------
Subcatch1	RainGage2	Outfall1	67.3855335000138	59.6039603960396	19568.758928404	.299226015806198	0
Subcatch2	RainGage2	Outfall1	0	100	0	0	0
Subcatch3	Raingage2	Outfall1	0.000	100	0	0	0
Subcatch4	RainGage2	Cisterns	0.000	100	0	0	0

[SUBAREAS]
;;Subcatch	N-Imperv	N-Perv	S-Imperv	S-Perv	PctZero	RouteTo	PctRouted
;;---------------------------------------------------------------------------------------
Subcatch1	0.01	.300179738562092	0.05	.200359477124183	0	OUTLET
Subcatch2	0	0	0	0	0	OUTLET
Subcatch3	0	0	0	6	0	OUTLET
Subcatch4	0	0	0	0	0	OUTLET

[INFILTRATION]
;;Subcatchment	Suction	Ksat	IMD
;;------------------------------------------------------
Subcatch1	8.72877764726274	.035173470786526	.32979954162233
Subcatch2	8.72877764726274	.035173470786526	.32979954162233
Subcatch3	8.72877764726274	.035173470786526	.32979954162233
Subcatch4	8.72877764726274	.035173470786526	.32979954162233

[LID_CONTROLS]
;;Name	Type/Layer	Parameters
;;--------------------------------------------
RainGarden	BC
RainGarden	SURFACE	6	0	0	0	0
RainGarden	SOIL	12	0.45	0.1	0.05	10	10	1.6
RainGarden	STORAGE	0	0	0.4	0
RainGarden	DRAIN	0	0.5	6	6

GreenRoof	BC
GreenRoof	SURFACE	0	0	0	0	0
GreenRoof	SOIL	4	0.45	0.1	0.05	10	10	1.6
GreenRoof	STORAGE	3	0.75	0	0
GreenRoof	DRAIN	10	0.5	0	0

StreetPlanter	BC
StreetPlanter	SURFACE	6	0	0	0	0
StreetPlanter	SOIL	18	0.45	0.1	0.05	10	10	1.6
StreetPlanter	STORAGE	12	0.75	0.108	0

PorousPavement	PP
PorousPavement	SURFACE	0.05	0	0.01	3	0
PorousPavement	PAVEMENT	6	0.12	0	400	0
PorousPavement	STORAGE	18	0.75	0.108	0

[LID_USAGE]
;;Subcatchment	LID	Process	Number	Area	Width	InitSat	FromImp	ToPerv	RptFile	DrainTo

[JUNCTIONS]
;;Name	Elevation	MaxDepth	InitDepth	SurDepth	Aponded
;;---------------------------------------------------------
Cisterns	0	0	0	0	0

[OUTFALLS]
;;Name	Elevation	Type	Stage	Data	Gated	Routed	To
;;----------------------------------------------------------------------------
Outfall1	0	FREE	NO

[STORAGE]

[CONDUITS]

[XSECTIONS]

[TIMESERIES]
;;Name	Date	Time	Value
;;---------------------------
NARR_3HR	01/01/2014	00:00:00	0.0
NARR_3HR	01/01/2014	03:00:00	0.0
NARR_3HR	01/01/2014	06:00:00	0.0
NARR_3HR	01/01/2014	09:00:00	0.0
NARR_3HR	01/01/2014	12:00:00	0.0
NARR_3HR	01/01/2014	15:00:00	0.0
NARR_3HR	01/01/2014	18:00:00	0.0
NARR_3HR	01/01/2014	21:00:00	0.0
NARR_3HR	01/02/2014	00:00:00	0.0
NARR_3HR	01/02/2014	03:00:00	0.0
NARR_3HR	01/02/2014	06:00:00	0.0
NARR_3HR	01/02/2014	09:00:00	0.0
NARR_3HR	01/02/2014	12:00:00	0.0
NARR_3HR	01/02/2014	15:00:00	0.0
NARR_3HR	01/02/2014	18:00:00	0.0
NARR_3HR	01/02/2014	21:00:00	0.0
NARR_3HR	01/03/2014	00:00:00	0.0
NARR_3HR	01/03/2014	03:00:00	0.0
NARR_3HR	01/03/2014	06:00:00	0.0
NARR_3HR	01/03/2014	09:00:00	0.0
NARR_3HR	01/03/2014	12:00:00	0.0003075787401574803
NARR_3HR	01/03/2014	15:00:00	0.0
NARR_3HR	01/03/2014	18:00:00	0.0
NARR_3HR	01/03/2014	21:00:00	0.0
NARR_3HR	01/04/2014	00:00:00	0.0
NARR_3HR	01/04/2014	03:00:00	0.0
NARR_3HR	01/04/2014	06:00:00	0.0
NARR_3HR	01/04/2014	09:00:00	0.0
NARR_3HR	01/04/2014	12:00:00	0.0
NARR_3HR	01/04/2014	15:00:00	0.0
NARR_3HR	01/04/2014	18:00:00	0.0
NARR_3HR	01/04/2014	21:00:00	0.0
NARR_3HR	01/05/2014	00:00:00	0.0
NARR_3HR	01/05/2014	03:00:00	0.0
NARR_3HR	01/05/2014	06:00:00	0.0
NARR_3HR	01/05/2014	09:00:00	0.0
NARR_3HR	01/05/2014	12:00:00	5.452167682760344e-05
NARR_3HR	01/05/2014	15:00:00	0.0
NARR_3HR	01/05/2014	18:00:00	0.0
NARR_3HR	01/05/2014	21:00:00	0.0
NARR_3HR	01/06/2014	00:00:00	0.0
NARR_3HR	01/06/2014	03:00:00	0.0
NARR_3HR	01/06/2014	06:00:00	0.0
NARR_3HR	01/06/2014	09:00:00	0.0
NARR_3HR	01/06/2014	12:00:00	0.0
NARR_3HR	01/06/2014	15:00:00	0.0
NARR_3HR	01/06/2014	18:00:00	0.0
NARR_3HR	01/06/2014	21:00:00	0.0
NARR_3HR	01/07/2014	00:00:00	0.0
NARR_3HR	01/07/2014	03:00:00	2.4338465506636252e-05
NARR_3HR	01/07/2014	06:00:00	0.0
NARR_3HR	01/07/2014	09:00:00	0.0
NARR_3HR	01/07/2014	12:00:00	0.0
NARR_3HR	01/07/2014	15:00:00	0.0
NARR_3HR	01/07/2014	18:00:00	0.0
NARR_3HR	01/07/2014	21:00:00	0.0
NARR_3HR	01/08/2014	00:00:00	0.0
NARR_3HR	01/08/2014	03:00:00	0.0
NARR_3HR	01/08/2014	06:00:00	0.0
NARR_3HR	01/08/2014	09:00:00	0.0
NARR_3HR	01/08/2014	12:00:00	0.0
NARR_3HR	01/08/2014	15:00:00	0.0
NARR_3HR	01/08/2014	18:00:00	0.0
NARR_3HR	01/08/2014	21:00:00	0.0
NARR_3HR	01/09/2014	00:00:00	0.0
NARR_3HR	01/09/2014	03:00:00	0.0
NARR_3HR	01/09/2014	06:00:00	0.0
NARR_3HR	01/09/2014	09:00:00	0.0
NARR_3HR	01/09/2014	12:00:00	0.0
NARR_3HR	01/09/2014	15:00:00	0.0
NARR_3HR	01/09/2014	18:00:00	0.0
NARR_3HR	01/09/2014	21:00:00	0.0
NARR_3HR	01/10/2014	00:00:00	0.0
NARR_3HR	01/10/2014	03:00:00	0.0
NARR_3HR	01/10/2014	06:00:00	0.0
NARR_3HR	01/10/2014	09:00:00	0.0003075787401574803
NARR_3HR	01/10/2014	12:00:00	0.0
NARR_3HR	01/10/2014	15:00:00	0.0
NARR_3HR	01/10/2014	18:00:00	0.0
NARR_3HR	01/10/2014	21:00:00	4.213982569713762e-05
NARR_3HR	01/11/2014	00:00:00	0.0
NARR_3HR	01/11/2014	03:00:00	2.8500698257501673e-05
NARR_3HR	01/11/2014	06:00:00	0.0
NARR_3HR	01/11/2014	09:00:00	0.0
NARR_3HR	01/11/2014	12:00:00	0.0
NARR_3HR	01/11/2014	15:00:00	0.0
NARR_3HR	01/11/2014	18:00:00	0.0
NARR_3HR	01/11/2014	21:00:00	0.0
NARR_3HR	01/12/2014	00:00:00	0.0
NARR_3HR	01/12/2014	03:00:00	0.0
NARR_3HR	01/12/2014	06:00:00	0.0
NARR_3HR	01/12/2014	09:00:00	0.0
NARR_3HR	01/12/2014	12:00:00	0.0003075787401574803
NARR_3HR	01/12/2014	15:00:00	0.0
NARR_3HR	01/12/2014	18:00:00	0.0
NARR_3HR	01/12/2014	21:00:00	0.0
NARR_3HR	01/13/2014	00:00:00	0.0
NARR_3HR	01/13/2014	03:00:00	0.0
NARR_3HR	01/13/2014	06:00:00	0.0
NARR_3HR	01/13/2014	09:00:00	0.0
NARR_3HR	01/13/2014	12:00:00	0.0
NARR_3HR	01/13/2014	15:00:00	0.0
NARR_3HR	01/13/2014	18:00:00	0.0
NARR_3HR	01/13/2014	21:00:00	0.0
NARR_3HR	01/14/2014	00:00:00	0.0
NARR_3HR	01/14/2014	03:00:00	0.0
NARR_3HR	01/14/2014	06:00:00	0.0
NARR_3HR	01/14/2014	09:00:00	0.0
NARR_3HR	01/14/2014	12:00:00	0.0
NARR_3HR	01/14/2014	15:00:00	7.380108077695051e-05
NARR_3HR	01/14/2014	18:00:00	0.0
NARR_3HR	01/14/2014	21:00:00	0.0
NARR_3HR	01/15/2014	00:00:00	0.00013758962805287577
NARR_3HR	01/15/2014	03:00:00	0.0
NARR_3HR	01/15/2014	06:00:00	0.0
NARR_3HR	01/15/2014	09:00:00	0.0
NARR_3HR	01/15/2014	12:00:00	0.0
NARR_3HR	01/15/2014	15:00:00	0.0
NARR_3HR	01/15/2014	18:00:00	0.0
NARR_3HR	01/15/2014	21:00:00	0.0
NARR_3HR	01/16/2014	00:00:00	0.0
NARR_3HR	01/16/2014	03:00:00	0.0
NARR_3HR	01/16/2014	06:00:00	0.0
NARR_3HR	01/16/2014	09:00:00	0.0
NARR_3HR	01/16/2014	12:00:00	0.0
NARR_3HR	01/16/2014	15:00:00	0.0
NARR_3HR	01/16/2014	18:00:00	0.0
NARR_3HR	01/16/2014	21:00:00	0.0
NARR_3HR	01/17/2014	00:00:00	0.0
NARR_3HR	01/17/2014	03:00:00	0.0
NARR_3HR	01/17/2014	06:00:00	0.0
NARR_3HR	01/17/2014	09:00:00	0.0
NARR_3HR	01/17/2014	12:00:00	0.0
NARR_3HR	01/17/2014	15:00:00	0.0
NARR_3HR	01/17/2014	18:00:00	0.0
NARR_3HR	01/17/2014	21:00:00	0.0
NARR_3HR	01/18/2014	00:00:00	0.0
NARR_3HR	01/18/2014	03:00:00	0.0
NARR_3HR	01/18/2014	06:00:00	0.0
NARR_3HR	01/18/2014	09:00:00	0.0
NARR_3HR	01/18/2014	12:00:00	0.0
NARR_3HR	01/18/2014	15:00:00	0.0
NARR_3HR	01/18/2014	18:00:00	0.0
NARR_3HR	01/18/2014	21:00:00	0.0
NARR_3HR	01/19/2014	00:00:00	5.977726944788235e-05
NARR_3HR	01/19/2014	03:00:00	0.0
NARR_3HR	01/19/2014	06:00:00	0.0
NARR_3HR	01/19/2014	09:00:00	0.0
NARR_3HR	01/19/2014	12:00:00	0.0
NARR_3HR	01/19/2014	15:00:00	0.0
NARR_3HR	01/19/2014	18:00:00	0.0
NARR_3HR	01/19/2014	21:00:00	0.0
NARR_3HR	01/20/2014	00:00:00	0.0
NARR_3HR	01/20/2014	03:00:00	0.0
NARR_3HR	01/20/2014	06:00:00	0.0
NARR_3HR	01/20/2014	09:00:00	0.0
NARR_3HR	01/20/2014	12:00:00	0.0
NARR_3HR	01/20/2014	15:00:00	0.0
NARR_3HR	01/20/2014	18:00:00	0.0
NARR_3HR	01/20/2014	21:00:00	0.0
NARR_3HR	01/21/2014	00:00:00	0.0
NARR_3HR	01/21/2014	03:00:00	0.0
NARR_3HR	01/21/2014	06:00:00	0.0
NARR_3HR	01/21/2014	09:00:00	0.0
NARR_3HR	01/21/2014	12:00:00	0.0
NARR_3HR	01/21/2014	15:00:00	0.0
NARR_3HR	01/21/2014	18:00:00	0.0
NARR_3HR	01/21/2014	21:00:00	0.0
NARR_3HR	01/22/2014	00:00:00	0.0
NARR_3HR	01/22/2014	03:00:00	5.187613405580596e-05
NARR_3HR	01/22/2014	06:00:00	0.0
NARR_3HR	01/22/2014	09:00:00	0.0
NARR_3HR	01/22/2014	12:00:00	0.0
NARR_3HR	01/22/2014	15:00:00	0.0
NARR_3HR	01/22/2014	18:00:00	0.0
NARR_3HR	01/22/2014	21:00:00	0.0
NARR_3HR	01/23/2014	00:00:00	0.0
NARR_3HR	01/23/2014	03:00:00	0.0
NARR_3HR	01/23/2014	06:00:00	0.0003075787401574803
NARR_3HR	01/23/2014	09:00:00	0.000922736220472441
NARR_3HR	01/23/2014	12:00:00	0.0
NARR_3HR	01/23/2014	15:00:00	0.0
NARR_3HR	01/23/2014	18:00:00	0.0
NARR_3HR	01/23/2014	21:00:00	0.0
NARR_3HR	01/24/2014	00:00:00	0.0
NARR_3HR	01/24/2014	03:00:00	0.0
NARR_3HR	01/24/2014	06:00:00	0.0
NARR_3HR	01/24/2014	09:00:00	0.0
NARR_3HR	01/24/2014	12:00:00	0.0
NARR_3HR	01/24/2014	15:00:00	0.0
NARR_3HR	01/24/2014	18:00:00	0.0003075787401574803
NARR_3HR	01/24/2014	21:00:00	0.0
NARR_3HR	01/25/2014	00:00:00	0.0
NARR_3HR	01/25/2014	03:00:00	0.0
NARR_3HR	01/25/2014	06:00:00	0.0
NARR_3HR	01/25/2014	09:00:00	0.0
NARR_3HR	01/25/2014	12:00:00	0.0
NARR_3HR	01/25/2014	15:00:00	0.0
NARR_3HR	01/25/2014	18:00:00	0.0
NARR_3HR	01/25/2014	21:00:00	0.0
NARR_3HR	01/26/2014	00:00:00	0.0
NARR_3HR	01/26/2014	03:00:00	0.0
NARR_3HR	01/26/2014	06:00:00	0.0
NARR_3HR	01/26/2014	09:00:00	0.0
NARR_3HR	01/26/2014	12:00:00	0.0
NARR_3HR	01/26/2014	15:00:00	0.0
NARR_3HR	01/26/2014	18:00:00	0.0
NARR_3HR	01/26/2014	21:00:00	0.0
NARR_3HR	01/27/2014	00:00:00	0.0
NARR_3HR	01/27/2014	03:00:00	0.0
NARR_3HR	01/27/2014	06:00:00	0.0
NARR_3HR	01/27/2014	09:00:00	1.3105981931911679e-05
NARR_3HR	01/27/2014	12:00:00	0.0
NARR_3HR	01/27/2014	15:00:00	2.142129920599029e-05
NARR_3HR	01/27/2014	18:00:00	0.0
NARR_3HR	01/27/2014	21:00:00	0.0
NARR_3HR	01/28/2014	00:00:00	0.0
NARR_3HR	01/28/2014	03:00:00	0.0
NARR_3HR	01/28/2014	06:00:00	0.0
NARR_3HR	01/28/2014	09:00:00	0.0
NARR_3HR	01/28/2014	12:00:00	0.0
NARR_3HR	01/28/2014	15:00:00	0.0012303149606299212
NARR_3HR	01/28/2014	18:00:00	0.0
NARR_3HR	01/28/2014	21:00:00	0.0
NARR_3HR	01/29/2014	00:00:00	0.0
NARR_3HR	01/29/2014	03:00:00	0.0
NARR_3HR	01/29/2014	06:00:00	0.0
NARR_3HR	01/29/2014	09:00:00	0.0
NARR_3HR	01/29/2014	12:00:00	0.0
NARR_3HR	01/29/2014	15:00:00	0.0
NARR_3HR	01/29/2014	18:00:00	0.0
NARR_3HR	01/29/2014	21:00:00	0.0
NARR_3HR	01/30/2014	00:00:00	0.0
NARR_3HR	01/30/2014	03:00:00	0.0
NARR_3HR	01/30/2014	06:00:00	0.0
NARR_3HR	01/30/2014	09:00:00	0.0006708461703277948
NARR_3HR	01/30/2014	12:00:00	0.0
NARR_3HR	01/30/2014	15:00:00	0.0
NARR_3HR	01/30/2014	18:00:00	0.000922736220472441
NARR_3HR	01/30/2014	21:00:00	0.0
NARR_3HR	01/31/2014	00:00:00	0.0
NARR_3HR	01/31/2014	03:00:00	0.013841043307086616
NARR_3HR	01/31/2014	06:00:00	0.012303149606299213
NARR_3HR	01/31/2014	09:00:00	0.00922736220472441
NARR_3HR	01/31/2014	12:00:00	0.007722327911009
NARR_3HR	01/31/2014	15:00:00	0.005574361311169122
NARR_3HR	01/31/2014	18:00:00	0.0003075787401574803
NARR_3HR	01/31/2014	21:00:00	0.0
NARR_3HR	02/01/2014	00:00:00	0.0
NARR_3HR	02/01/2014	03:00:00	0.0
NARR_3HR	02/01/2014	06:00:00	0.0
NARR_3HR	02/01/2014	09:00:00	0.0
NARR_3HR	02/01/2014	12:00:00	0.0
NARR_3HR	02/01/2014	15:00:00	0.0
NARR_3HR	02/01/2014	18:00:00	0.0
NARR_3HR	02/01/2014	21:00:00	0.0
NARR_3HR	02/02/2014	00:00:00	0.0
NARR_3HR	02/02/2014	03:00:00	0.0
NARR_3HR	02/02/2014	06:00:00	0.0
NARR_3HR	02/02/2014	09:00:00	0.0
NARR_3HR	02/02/2014	12:00:00	0.0
NARR_3HR	02/02/2014	15:00:00	0.0
NARR_3HR	02/02/2014	18:00:00	0.0003075787401574803
NARR_3HR	02/02/2014	21:00:00	0.0030757874015748033
NARR_3HR	02/03/2014	00:00:00	0.010150098425196851
NARR_3HR	02/03/2014	03:00:00	0.02860482283464567
NARR_3HR	02/03/2014	06:00:00	0.008919783464566929
NARR_3HR	02/03/2014	09:00:00	0.010765255905511811
NARR_3HR	02/03/2014	12:00:00	0.0
NARR_3HR	02/03/2014	15:00:00	0.0
NARR_3HR	02/03/2014	18:00:00	4.2286270672059434e-05
NARR_3HR	02/03/2014	21:00:00	0.0012303149606299212
NARR_3HR	02/04/2014	00:00:00	0.0
NARR_3HR	02/04/2014	03:00:00	0.0
NARR_3HR	02/04/2014	06:00:00	0.0
NARR_3HR	02/04/2014	09:00:00	0.0
NARR_3HR	02/04/2014	12:00:00	0.0
NARR_3HR	02/04/2014	15:00:00	8.114884006167492e-05
NARR_3HR	02/04/2014	18:00:00	0.0003075787401574803
NARR_3HR	02/04/2014	21:00:00	0.0003075787401574803
NARR_3HR	02/05/2014	00:00:00	0.0003075787401574803
NARR_3HR	02/05/2014	03:00:00	0.0006151574803149606
NARR_3HR	02/05/2014	06:00:00	0.0003075787401574803
NARR_3HR	02/05/2014	09:00:00	0.0
NARR_3HR	02/05/2014	12:00:00	0.0
NARR_3HR	02/05/2014	15:00:00	0.0
NARR_3HR	02/05/2014	18:00:00	0.0
NARR_3HR	02/05/2014	21:00:00	0.0
NARR_3HR	02/06/2014	00:00:00	0.0
NARR_3HR	02/06/2014	03:00:00	0.0
NARR_3HR	02/06/2014	06:00:00	0.00011807246185017853
NARR_3HR	02/06/2014	09:00:00	0.0006151574803149606
NARR_3HR	02/06/2014	12:00:00	0.0015378937007874017
NARR_3HR	02/06/2014	15:00:00	0.0006151574803149606
NARR_3HR	02/06/2014	18:00:00	0.006151574803149607
NARR_3HR	02/06/2014	21:00:00	0.07135826771653543
NARR_3HR	02/07/2014	00:00:00	0.048597440944881894
NARR_3HR	02/07/2014	03:00:00	0.021233844944811245
NARR_3HR	02/07/2014	06:00:00	0.015378937007874016
NARR_3HR	02/07/2014	09:00:00	0.0030757874015748033
NARR_3HR	02/07/2014	12:00:00	0.0013439888207931218
NARR_3HR	02/07/2014	15:00:00	0.0006151574803149606
NARR_3HR	02/07/2014	18:00:00	0.001845472440944882
NARR_3HR	02/07/2014	21:00:00	0.0
NARR_3HR	02/08/2014	00:00:00	0.0
NARR_3HR	02/08/2014	03:00:00	0.0
NARR_3HR	02/08/2014	06:00:00	0.0
NARR_3HR	02/08/2014	09:00:00	0.0003075787401574803
NARR_3HR	02/08/2014	12:00:00	0.0
NARR_3HR	02/08/2014	15:00:00	0.0
NARR_3HR	02/08/2014	18:00:00	0.0
NARR_3HR	02/08/2014	21:00:00	0.0
NARR_3HR	02/09/2014	00:00:00	0.0
NARR_3HR	02/09/2014	03:00:00	0.0
NARR_3HR	02/09/2014	06:00:00	0.0
NARR_3HR	02/09/2014	09:00:00	0.0
NARR_3HR	02/09/2014	12:00:00	0.0
NARR_3HR	02/09/2014	15:00:00	0.0
NARR_3HR	02/09/2014	18:00:00	0.0
NARR_3HR	02/09/2014	21:00:00	0.0
NARR_3HR	02/10/2014	00:00:00	0.0
NARR_3HR	02/10/2014	03:00:00	0.0
NARR_3HR	02/10/2014	06:00:00	0.0
NARR_3HR	02/10/2014	09:00:00	0.0
NARR_3HR	02/10/2014	12:00:00	0.0
NARR_3HR	02/10/2014	15:00:00	0.0
NARR_3HR	02/10/2014	18:00:00	0.0
NARR_3HR	02/10/2014	21:00:00	0.0
NARR_3HR	02/11/2014	00:00:00	0.0
NARR_3HR	02/11/2014	03:00:00	0.0
NARR_3HR	02/11/2014	06:00:00	0.0
NARR_3HR	02/11/2014	09:00:00	0.0
NARR_3HR	02/11/2014	12:00:00	0.0
NARR_3HR	02/11/2014	15:00:00	0.0
NARR_3HR	02/11/2014	18:00:00	2.757291397534487e-05
NARR_3HR	02/11/2014	21:00:00	0.0
NARR_3HR	02/12/2014	00:00:00	0.0
NARR_3HR	02/12/2014	03:00:00	0.0
NARR_3HR	02/12/2014	06:00:00	0.0
NARR_3HR	02/12/2014	09:00:00	0.0
NARR_3HR	02/12/2014	12:00:00	0.0
NARR_3HR	02/12/2014	15:00:00	5.266695158688102e-05
NARR_3HR	02/12/2014	18:00:00	0.0
NARR_3HR	02/12/2014	21:00:00	0.0
NARR_3HR	02/13/2014	00:00:00	0.0
NARR_3HR	02/13/2014	03:00:00	0.0
NARR_3HR	02/13/2014	06:00:00	0.0
NARR_3HR	02/13/2014	09:00:00	0.0
NARR_3HR	02/13/2014	12:00:00	0.0
NARR_3HR	02/13/2014	15:00:00	0.0
NARR_3HR	02/13/2014	18:00:00	0.0
NARR_3HR	02/13/2014	21:00:00	0.0
NARR_3HR	02/14/2014	00:00:00	0.0
NARR_3HR	02/14/2014	03:00:00	0.0
NARR_3HR	02/14/2014	06:00:00	0.0
NARR_3HR	02/14/2014	09:00:00	0.0
NARR_3HR	02/14/2014	12:00:00	0.0
NARR_3HR	02/14/2014	15:00:00	0.0
NARR_3HR	02/14/2014	18:00:00	0.0
NARR_3HR	02/14/2014	21:00:00	0.0
NARR_3HR	02/15/2014	00:00:00	0.0
NARR_3HR	02/15/2014	03:00:00	0.0
NARR_3HR	02/15/2014	06:00:00	0.0
NARR_3HR	02/15/2014	09:00:00	0.0
NARR_3HR	02/15/2014	12:00:00	0.0
NARR_3HR	02/15/2014	15:00:00	0.0
NARR_3HR	02/15/2014	18:00:00	0.0
NARR_3HR	02/15/2014	21:00:00	0.0
NARR_3HR	02/16/2014	00:00:00	0.0
NARR_3HR	02/16/2014	03:00:00	0.0
NARR_3HR	02/16/2014	06:00:00	0.0
NARR_3HR	02/16/2014	09:00:00	0.0
NARR_3HR	02/16/2014	12:00:00	0.0003075787401574803
NARR_3HR	02/16/2014	15:00:00	0.0
NARR_3HR	02/16/2014	18:00:00	3.404475337877048e-05
NARR_3HR	02/16/2014	21:00:00	0.0
NARR_3HR	02/17/2014	00:00:00	0.0
NARR_3HR	02/17/2014	03:00:00	0.0
NARR_3HR	02/17/2014	06:00:00	0.0
NARR_3HR	02/17/2014	09:00:00	0.0
NARR_3HR	02/17/2014	12:00:00	0.0
NARR_3HR	02/17/2014	15:00:00	0.0
NARR_3HR	02/17/2014	18:00:00	0.0
NARR_3HR	02/17/2014	21:00:00	0.0
NARR_3HR	02/18/2014	00:00:00	0.0
NARR_3HR	02/18/2014	03:00:00	0.0
NARR_3HR	02/18/2014	06:00:00	0.0
NARR_3HR	02/18/2014	09:00:00	0.0
NARR_3HR	02/18/2014	12:00:00	0.0
NARR_3HR	02/18/2014	15:00:00	0.0
NARR_3HR	02/18/2014	18:00:00	0.0
NARR_3HR	02/18/2014	21:00:00	0.0
NARR_3HR	02/19/2014	00:00:00	0.0
NARR_3HR	02/19/2014	03:00:00	0.0
NARR_3HR	02/19/2014	06:00:00	0.0
NARR_3HR	02/19/2014	09:00:00	0.00011764553844870076
NARR_3HR	02/19/2014	12:00:00	0.0
NARR_3HR	02/19/2014	15:00:00	0.0
NARR_3HR	02/19/2014	18:00:00	0.0
NARR_3HR	02/19/2014	21:00:00	0.0
NARR_3HR	02/20/2014	00:00:00	0.0
NARR_3HR	02/20/2014	03:00:00	0.0
NARR_3HR	02/20/2014	06:00:00	0.0
NARR_3HR	02/20/2014	09:00:00	0.0
NARR_3HR	02/20/2014	12:00:00	0.0003075787401574803
NARR_3HR	02/20/2014	15:00:00	0.0
NARR_3HR	02/20/2014	18:00:00	0.0
NARR_3HR	02/20/2014	21:00:00	0.0
NARR_3HR	02/21/2014	00:00:00	4.507454596166536e-06
NARR_3HR	02/21/2014	03:00:00	0.00011759875232251141
NARR_3HR	02/21/2014	06:00:00	9.321086072018298e-07
NARR_3HR	02/21/2014	09:00:00	0.0
NARR_3HR	02/21/2014	12:00:00	0.0
NARR_3HR	02/21/2014	15:00:00	0.0
NARR_3HR	02/21/2014	18:00:00	0.0
NARR_3HR	02/21/2014	21:00:00	0.0
NARR_3HR	02/22/2014	00:00:00	0.0
NARR_3HR	02/22/2014	03:00:00	0.0
NARR_3HR	02/22/2014	06:00:00	0.0
NARR_3HR	02/22/2014	09:00:00	0.0
NARR_3HR	02/22/2014	12:00:00	0.0
NARR_3HR	02/22/2014	15:00:00	0.0
NARR_3HR	02/22/2014	18:00:00	0.0
NARR_3HR	02/22/2014	21:00:00	0.0
NARR_3HR	02/23/2014	00:00:00	3.563240170478821e-05
NARR_3HR	02/23/2014	03:00:00	0.0
NARR_3HR	02/23/2014	06:00:00	0.0
NARR_3HR	02/23/2014	09:00:00	0.0
NARR_3HR	02/23/2014	12:00:00	0.0
NARR_3HR	02/23/2014	15:00:00	0.0
NARR_3HR	02/23/2014	18:00:00	0.0
NARR_3HR	02/23/2014	21:00:00	0.0
NARR_3HR	02/24/2014	00:00:00	0.0
NARR_3HR	02/24/2014	03:00:00	0.0
NARR_3HR	02/24/2014	06:00:00	0.0
NARR_3HR	02/24/2014	09:00:00	0.0
NARR_3HR	02/24/2014	12:00:00	0.0
NARR_3HR	02/24/2014	15:00:00	0.0
NARR_3HR	02/24/2014	18:00:00	7.69163822887216e-05
NARR_3HR	02/24/2014	21:00:00	0.0
NARR_3HR	02/25/2014	00:00:00	0.0
NARR_3HR	02/25/2014	03:00:00	0.0
NARR_3HR	02/25/2014	06:00:00	0.0
NARR_3HR	02/25/2014	09:00:00	0.0
NARR_3HR	02/25/2014	12:00:00	0.0
NARR_3HR	02/25/2014	15:00:00	0.0
NARR_3HR	02/25/2014	18:00:00	0.0
NARR_3HR	02/25/2014	21:00:00	0.0
NARR_3HR	02/26/2014	00:00:00	0.0
NARR_3HR	02/26/2014	03:00:00	0.0
NARR_3HR	02/26/2014	06:00:00	0.0
NARR_3HR	02/26/2014	09:00:00	0.0
NARR_3HR	02/26/2014	12:00:00	0.0
NARR_3HR	02/26/2014	15:00:00	0.0003075787401574803
NARR_3HR	02/26/2014	18:00:00	0.0
NARR_3HR	02/26/2014	21:00:00	0.0
NARR_3HR	02/27/2014	00:00:00	0.0006151574803149606
NARR_3HR	02/27/2014	03:00:00	0.041523129921259845
NARR_3HR	02/27/2014	06:00:00	0.17224409448818898
NARR_3HR	02/27/2014	09:00:00	0.23006889763779528
NARR_3HR	02/27/2014	12:00:00	0.3884719488188977
NARR_3HR	02/27/2014	15:00:00	0.03844734251968504
NARR_3HR	02/27/2014	18:00:00	0.0
NARR_3HR	02/27/2014	21:00:00	0.0024606299212598425
NARR_3HR	02/28/2014	00:00:00	0.0021530511811023623
NARR_3HR	02/28/2014	03:00:00	0.005228838582677166
NARR_3HR	02/28/2014	06:00:00	0.002768208661417323
NARR_3HR	02/28/2014	09:00:00	0.16978346456692914
NARR_3HR	02/28/2014	12:00:00	0.4207677165354331
NARR_3HR	02/28/2014	15:00:00	0.40415846456692917
NARR_3HR	02/28/2014	18:00:00	0.08550688976377953
NARR_3HR	02/28/2014	21:00:00	0.37309301181102367
NARR_3HR	03/01/2014	00:00:00	0.21991879921259844
NARR_3HR	03/01/2014	03:00:00	0.14117864173228348
NARR_3HR	03/01/2014	06:00:00	0.09702491009329248
NARR_3HR	03/01/2014	09:00:00	0.09965551181102363
NARR_3HR	03/01/2014	12:00:00	0.07935531496062992
NARR_3HR	03/01/2014	15:00:00	0.11380413385826772
NARR_3HR	03/01/2014	18:00:00	0.07074311023622047
NARR_3HR	03/01/2014	21:00:00	0.2783587598425197
NARR_3HR	03/02/2014	00:00:00	0.20453986220472442
NARR_3HR	03/02/2014	03:00:00	0.029835137795275593
NARR_3HR	03/02/2014	06:00:00	0.0015378937007874017
NARR_3HR	03/02/2014	09:00:00	0.0006151574803149606
NARR_3HR	03/02/2014	12:00:00	0.0015378937007874017
NARR_3HR	03/02/2014	15:00:00	0.013225885826771654
NARR_3HR	03/02/2014	18:00:00	0.027374507874015748
NARR_3HR	03/02/2014	21:00:00	0.017531988188976378
NARR_3HR	03/03/2014	00:00:00	0.0
NARR_3HR	03/03/2014	03:00:00	0.0003075787401574803
NARR_3HR	03/03/2014	06:00:00	0.0003075787401574803
NARR_3HR	03/03/2014	09:00:00	0.0
NARR_3HR	03/03/2014	12:00:00	0.0
NARR_3HR	03/03/2014	15:00:00	0.0003075787401574803
NARR_3HR	03/03/2014	18:00:00	0.0003075787401574803
NARR_3HR	03/03/2014	21:00:00	0.0
NARR_3HR	03/04/2014	00:00:00	0.0
NARR_3HR	03/04/2014	03:00:00	0.0
NARR_3HR	03/04/2014	06:00:00	0.0
NARR_3HR	03/04/2014	09:00:00	0.0
NARR_3HR	03/04/2014	12:00:00	0.0
NARR_3HR	03/04/2014	15:00:00	0.0
NARR_3HR	03/04/2014	18:00:00	0.0
NARR_3HR	03/04/2014	21:00:00	0.0
NARR_3HR	03/05/2014	00:00:00	0.0
NARR_3HR	03/05/2014	03:00:00	0.0
NARR_3HR	03/05/2014	06:00:00	0.0
NARR_3HR	03/05/2014	09:00:00	0.0
NARR_3HR	03/05/2014	12:00:00	0.0
NARR_3HR	03/05/2014	15:00:00	0.0
NARR_3HR	03/05/2014	18:00:00	0.0
NARR_3HR	03/05/2014	21:00:00	0.0
NARR_3HR	03/06/2014	00:00:00	0.0
NARR_3HR	03/06/2014	03:00:00	0.0
NARR_3HR	03/06/2014	06:00:00	0.0
NARR_3HR	03/06/2014	09:00:00	0.0
NARR_3HR	03/06/2014	12:00:00	0.0
NARR_3HR	03/06/2014	15:00:00	0.0
NARR_3HR	03/06/2014	18:00:00	0.0
NARR_3HR	03/06/2014	21:00:00	0.0
NARR_3HR	03/07/2014	00:00:00	0.0
NARR_3HR	03/07/2014	03:00:00	0.0
NARR_3HR	03/07/2014	06:00:00	0.0
NARR_3HR	03/07/2014	09:00:00	0.0
NARR_3HR	03/07/2014	12:00:00	0.0
NARR_3HR	03/07/2014	15:00:00	0.0
NARR_3HR	03/07/2014	18:00:00	0.0
NARR_3HR	03/07/2014	21:00:00	0.0
NARR_3HR	03/08/2014	00:00:00	0.0
NARR_3HR	03/08/2014	03:00:00	0.0
NARR_3HR	03/08/2014	06:00:00	0.0
NARR_3HR	03/08/2014	09:00:00	0.0
NARR_3HR	03/08/2014	12:00:00	0.0
NARR_3HR	03/08/2014	15:00:00	0.0
NARR_3HR	03/08/2014	18:00:00	0.0
NARR_3HR	03/08/2014	21:00:00	0.0
NARR_3HR	03/09/2014	00:00:00	0.0
NARR_3HR	03/09/2014	03:00:00	0.0
NARR_3HR	03/09/2014	06:00:00	0.0
NARR_3HR	03/09/2014	09:00:00	0.00011135683776297439
NARR_3HR	03/09/2014	12:00:00	0.0
NARR_3HR	03/09/2014	15:00:00	0.0
NARR_3HR	03/09/2014	18:00:00	0.0
NARR_3HR	03/09/2014	21:00:00	0.0
NARR_3HR	03/10/2014	00:00:00	0.0
NARR_3HR	03/10/2014	03:00:00	0.0
NARR_3HR	03/10/2014	06:00:00	0.0
NARR_3HR	03/10/2014	09:00:00	0.0
NARR_3HR	03/10/2014	12:00:00	0.0
NARR_3HR	03/10/2014	15:00:00	0.0
NARR_3HR	03/10/2014	18:00:00	0.0
NARR_3HR	03/10/2014	21:00:00	0.0
NARR_3HR	03/11/2014	00:00:00	0.0
NARR_3HR	03/11/2014	03:00:00	0.0
NARR_3HR	03/11/2014	06:00:00	0.0
NARR_3HR	03/11/2014	09:00:00	0.0
NARR_3HR	03/11/2014	12:00:00	0.0
NARR_3HR	03/11/2014	15:00:00	0.0
NARR_3HR	03/11/2014	18:00:00	0.0
NARR_3HR	03/11/2014	21:00:00	0.0
NARR_3HR	03/12/2014	00:00:00	0.0
NARR_3HR	03/12/2014	03:00:00	0.0
NARR_3HR	03/12/2014	06:00:00	0.0003075787401574803
NARR_3HR	03/12/2014	09:00:00	0.0
NARR_3HR	03/12/2014	12:00:00	0.0
NARR_3HR	03/12/2014	15:00:00	2.1448725555825424e-05
NARR_3HR	03/12/2014	18:00:00	0.0
NARR_3HR	03/12/2014	21:00:00	0.0
NARR_3HR	03/13/2014	00:00:00	0.0
NARR_3HR	03/13/2014	03:00:00	0.0
NARR_3HR	03/13/2014	06:00:00	0.0
NARR_3HR	03/13/2014	09:00:00	0.0
NARR_3HR	03/13/2014	12:00:00	0.0
NARR_3HR	03/13/2014	15:00:00	0.0
NARR_3HR	03/13/2014	18:00:00	0.0
NARR_3HR	03/13/2014	21:00:00	0.0
NARR_3HR	03/14/2014	00:00:00	0.0
NARR_3HR	03/14/2014	03:00:00	0.0
NARR_3HR	03/14/2014	06:00:00	0.0
NARR_3HR	03/14/2014	09:00:00	0.0
NARR_3HR	03/14/2014	12:00:00	0.0
NARR_3HR	03/14/2014	15:00:00	0.000922736220472441
NARR_3HR	03/14/2014	18:00:00	0.0
NARR_3HR	03/14/2014	21:00:00	0.0
NARR_3HR	03/15/2014	00:00:00	0.0
NARR_3HR	03/15/2014	03:00:00	0.0
NARR_3HR	03/15/2014	06:00:00	0.0
NARR_3HR	03/15/2014	09:00:00	0.0
NARR_3HR	03/15/2014	12:00:00	0.0
NARR_3HR	03/15/2014	15:00:00	9.176899737671135e-05
NARR_3HR	03/15/2014	18:00:00	0.0
NARR_3HR	03/15/2014	21:00:00	0.0
NARR_3HR	03/16/2014	00:00:00	0.0003075787401574803
NARR_3HR	03/16/2014	03:00:00	0.0
NARR_3HR	03/16/2014	06:00:00	0.0
NARR_3HR	03/16/2014	09:00:00	0.0
NARR_3HR	03/16/2014	12:00:00	0.0
NARR_3HR	03/16/2014	15:00:00	0.0
NARR_3HR	03/16/2014	18:00:00	0.0
NARR_3HR	03/16/2014	21:00:00	0.0
NARR_3HR	03/17/2014	00:00:00	0.0
NARR_3HR	03/17/2014	03:00:00	0.0
NARR_3HR	03/17/2014	06:00:00	0.0
NARR_3HR	03/17/2014	09:00:00	0.0
NARR_3HR	03/17/2014	12:00:00	0.0
NARR_3HR	03/17/2014	15:00:00	0.0
NARR_3HR	03/17/2014	18:00:00	0.0
NARR_3HR	03/17/2014	21:00:00	0.0
NARR_3HR	03/18/2014	00:00:00	0.0
NARR_3HR	03/18/2014	03:00:00	0.0
NARR_3HR	03/18/2014	06:00:00	0.0
NARR_3HR	03/18/2014	09:00:00	0.0
NARR_3HR	03/18/2014	12:00:00	0.0
NARR_3HR	03/18/2014	15:00:00	0.0
NARR_3HR	03/18/2014	18:00:00	0.0
NARR_3HR	03/18/2014	21:00:00	0.0
NARR_3HR	03/19/2014	00:00:00	0.0
NARR_3HR	03/19/2014	03:00:00	0.0
NARR_3HR	03/19/2014	06:00:00	5.7246262852953176e-05
NARR_3HR	03/19/2014	09:00:00	0.0
NARR_3HR	03/19/2014	12:00:00	0.0
NARR_3HR	03/19/2014	15:00:00	0.0
NARR_3HR	03/19/2014	18:00:00	0.0
NARR_3HR	03/19/2014	21:00:00	0.0
NARR_3HR	03/20/2014	00:00:00	0.0
NARR_3HR	03/20/2014	03:00:00	0.0
NARR_3HR	03/20/2014	06:00:00	0.0
NARR_3HR	03/20/2014	09:00:00	0.0003075787401574803
NARR_3HR	03/20/2014	12:00:00	0.0
NARR_3HR	03/20/2014	15:00:00	0.0
NARR_3HR	03/20/2014	18:00:00	0.0
NARR_3HR	03/20/2014	21:00:00	0.0
NARR_3HR	03/21/2014	00:00:00	0.0
NARR_3HR	03/21/2014	03:00:00	0.0
NARR_3HR	03/21/2014	06:00:00	0.0
NARR_3HR	03/21/2014	09:00:00	0.0
NARR_3HR	03/21/2014	12:00:00	0.0
NARR_3HR	03/21/2014	15:00:00	0.0
NARR_3HR	03/21/2014	18:00:00	0.0
NARR_3HR	03/21/2014	21:00:00	0.0
NARR_3HR	03/22/2014	00:00:00	0.0
NARR_3HR	03/22/2014	03:00:00	0.0
NARR_3HR	03/22/2014	06:00:00	0.0
NARR_3HR	03/22/2014	09:00:00	0.0
NARR_3HR	03/22/2014	12:00:00	0.0
NARR_3HR	03/22/2014	15:00:00	0.0
NARR_3HR	03/22/2014	18:00:00	0.0
NARR_3HR	03/22/2014	21:00:00	0.0
NARR_3HR	03/23/2014	00:00:00	0.0
NARR_3HR	03/23/2014	03:00:00	0.0
NARR_3HR	03/23/2014	06:00:00	0.0
NARR_3HR	03/23/2014	09:00:00	0.0
NARR_3HR	03/23/2014	12:00:00	0.0
NARR_3HR	03/23/2014	15:00:00	0.0
NARR_3HR	03/23/2014	18:00:00	0.0
NARR_3HR	03/23/2014	21:00:00	0.0
NARR_3HR	03/24/2014	00:00:00	0.0
NARR_3HR	03/24/2014	03:00:00	0.0
NARR_3HR	03/24/2014	06:00:00	0.000922736220472441
NARR_3HR	03/24/2014	09:00:00	0.000922736220472441
NARR_3HR	03/24/2014	12:00:00	0.0
NARR_3HR	03/24/2014	15:00:00	0.0
NARR_3HR	03/24/2014	18:00:00	0.0
NARR_3HR	03/24/2014	21:00:00	0.0
NARR_3HR	03/25/2014	00:00:00	0.0
NARR_3HR	03/25/2014	03:00:00	0.0
NARR_3HR	03/25/2014	06:00:00	0.0003075787401574803
NARR_3HR	03/25/2014	09:00:00	3.074757813468693e-05
NARR_3HR	03/25/2014	12:00:00	0.0
NARR_3HR	03/25/2014	15:00:00	0.0
NARR_3HR	03/25/2014	18:00:00	0.0
NARR_3HR	03/25/2014	21:00:00	0.0
NARR_3HR	03/26/2014	00:00:00	0.0
NARR_3HR	03/26/2014	03:00:00	0.0006151574803149606
NARR_3HR	03/26/2014	06:00:00	0.0012303149606299212
NARR_3HR	03/26/2014	09:00:00	0.011687992125984252
NARR_3HR	03/26/2014	12:00:00	0.010765255905511811
NARR_3HR	03/26/2014	15:00:00	0.0006151574803149606
NARR_3HR	03/26/2014	18:00:00	0.000922736220472441
NARR_3HR	03/26/2014	21:00:00	0.000922736220472441
NARR_3HR	03/27/2014	00:00:00	0.010457677165354331
NARR_3HR	03/27/2014	03:00:00	0.0203882873527647
NARR_3HR	03/27/2014	06:00:00	0.00922736220472441
NARR_3HR	03/27/2014	09:00:00	0.004613681102362205
NARR_3HR	03/27/2014	12:00:00	0.0
NARR_3HR	03/27/2014	15:00:00	0.0
NARR_3HR	03/27/2014	18:00:00	0.0
NARR_3HR	03/27/2014	21:00:00	0.0
NARR_3HR	03/28/2014	00:00:00	0.0
NARR_3HR	03/28/2014	03:00:00	0.0
NARR_3HR	03/28/2014	06:00:00	0.0
NARR_3HR	03/28/2014	09:00:00	0.0
NARR_3HR	03/28/2014	12:00:00	0.0
NARR_3HR	03/28/2014	15:00:00	0.0
NARR_3HR	03/28/2014	18:00:00	0.0
NARR_3HR	03/28/2014	21:00:00	0.0
NARR_3HR	03/29/2014	00:00:00	0.0
NARR_3HR	03/29/2014	03:00:00	0.0
NARR_3HR	03/29/2014	06:00:00	0.0
NARR_3HR	03/29/2014	09:00:00	0.0
NARR_3HR	03/29/2014	12:00:00	0.0
NARR_3HR	03/29/2014	15:00:00	0.0
NARR_3HR	03/29/2014	18:00:00	0.0
NARR_3HR	03/29/2014	21:00:00	0.0
NARR_3HR	03/30/2014	00:00:00	0.0
NARR_3HR	03/30/2014	03:00:00	0.0
NARR_3HR	03/30/2014	06:00:00	0.0
NARR_3HR	03/30/2014	09:00:00	0.0
NARR_3HR	03/30/2014	12:00:00	0.0
NARR_3HR	03/30/2014	15:00:00	0.0
NARR_3HR	03/30/2014	18:00:00	0.0
NARR_3HR	03/30/2014	21:00:00	0.0
NARR_3HR	03/31/2014	00:00:00	0.0
NARR_3HR	03/31/2014	03:00:00	0.0
NARR_3HR	03/31/2014	06:00:00	0.0
NARR_3HR	03/31/2014	09:00:00	0.0
NARR_3HR	03/31/2014	12:00:00	0.0
NARR_3HR	03/31/2014	15:00:00	0.0
NARR_3HR	03/31/2014	18:00:00	0.0
NARR_3HR	03/31/2014	21:00:00	0.0003075787401574803
NARR_3HR	04/01/2014	00:00:00	0.0
NARR_3HR	04/01/2014	03:00:00	0.001845472440944882
NARR_3HR	04/01/2014	06:00:00	0.05136564960629922
NARR_3HR	04/01/2014	09:00:00	0.12456938976377953
NARR_3HR	04/01/2014	12:00:00	0.000922736220472441
NARR_3HR	04/01/2014	15:00:00	0.0003075787401574803
NARR_3HR	04/01/2014	18:00:00	0.0003075787401574803
NARR_3HR	04/01/2014	21:00:00	0.004921259842519685
NARR_3HR	04/02/2014	00:00:00	0.0003075787401574803
NARR_3HR	04/02/2014	03:00:00	0.000922736220472441
NARR_3HR	04/02/2014	06:00:00	0.03875492125984252
NARR_3HR	04/02/2014	09:00:00	0.07135826771653543