[TITLE]
;; No Green Infrastructure
;; 120110502083 Florida, Broward County
;; Tract: 0502	Block Group: 083

[OPTIONS]
;;Option		Value
FLOW_UNITS		CFS
INFILTRATION		GREEN_AMPT
FLOW_ROUTING		KINWAVE
LINK_OFFSETS		DEPTH
MIN_SLOPE		0
ALLOW_PONDING		NO
SKIP_STEADY_STATE	NO

START_DATE		01/01/2014
START_TIME		00:00:00
REPORT_START_DATE	01/01/2014
REPORT_START_TIME	00:00:00
END_DATE		12/31/2014
END_TIME		23:59:59
SWEEP_START		01/01
SWEEP_END		12/31
DRY_DAYS		0
REPORT_STEP		01:00:00
WET_STEP		00:06:00
DRY_STEP		00:06:00
ROUTING_STEP		00:01:00

INERTIAL_DAMPING	PARTIAL
NORMAL_FLOW_LIMITED	BOTH
FORCE_MAIN_EQUATION	H-W
VARIABLE_STEP		0.75
LENGTHENING_STEP	0
MIN_SURFAREA		12.557
MAX_TRIALS		8
HEAD_TOLERANCE		0.005
SYS_FLOW_TOL		5
LAT_FLOW_TOL		5
MINIMUM_STEP		0.5
THREADS			1

[EVAPORATION]
;;DATA	Source	Parameters
;;------------------------
MONTHLY	0.07900448807630539	0.09223241792929172	0.11081024769542216	0.12340561704754831	0.11794940491845607	0.13488352542524337	0.14590870108180043	0.1417323468588114	0.13243917047600745	0.11382981124374866	0.09579389593667983	0.07693694263094664	
DRY_ONLY	YES

[RAINGAGES]
;;Name	Format	Interval	SCF	Source
;;--------------------------------------------
RainGage2	VOLUME	03:00:00	1	TIMESERIES NARR_3HR

[SUBCATCHMENTS]
;;Name	Rain Gage	Outlet	Area	%Imperv	Width	%Slope	CurbLen	SnowPack
;;------------------------------------------------------------------------------
Subcatch1	RainGage2	Outfall1	1330.14150450263	59.8451763919077	386273.092907564	1.29699003696442	0
Subcatch2	RainGage2	Outfall1	0	100	0	0	0
Subcatch3	Raingage2	Outfall1	0.000	100	0	0	0
Subcatch4	RainGage2	Cisterns	0.000	100	0	0	0

[SUBAREAS]
;;Subcatch	N-Imperv	N-Perv	S-Imperv	S-Perv	PctZero	RouteTo	PctRouted
;;---------------------------------------------------------------------------------------
Subcatch1	0.01	.305903833182049	0.05	.212825712215718	0	OUTLET
Subcatch2	0	0	0	0	0	OUTLET
Subcatch3	0	0	0	6	0	OUTLET
Subcatch4	0	0	0	0	0	OUTLET

[INFILTRATION]
;;Subcatchment	Suction	Ksat	IMD
;;------------------------------------------------------
Subcatch1	1.95000000000001	4.73999980259875	.417000000000001
Subcatch2	1.95000000000001	4.73999980259875	.417000000000001
Subcatch3	1.95000000000001	4.73999980259875	.417000000000001
Subcatch4	1.95000000000001	4.73999980259875	.417000000000001

[LID_CONTROLS]
;;Name	Type/Layer	Parameters
;;--------------------------------------------
RainGarden	BC
RainGarden	SURFACE	6	0	0	0	0
RainGarden	SOIL	12	0.45	0.1	0.05	10	10	1.6
RainGarden	STORAGE	0	0	0.4	0
RainGarden	DRAIN	0	0.5	6	6

GreenRoof	BC
GreenRoof	SURFACE	0	0	0	0	0
GreenRoof	SOIL	4	0.45	0.1	0.05	10	10	1.6
GreenRoof	STORAGE	3	0.75	0	0
GreenRoof	DRAIN	10	0.5	0	0

StreetPlanter	BC
StreetPlanter	SURFACE	6	0	0	0	0
StreetPlanter	SOIL	18	0.45	0.1	0.05	10	10	1.6
StreetPlanter	STORAGE	12	0.75	0.108	0

PorousPavement	PP
PorousPavement	SURFACE	0.05	0	0.01	3	0
PorousPavement	PAVEMENT	6	0.12	0	400	0
PorousPavement	STORAGE	18	0.75	0.108	0

[LID_USAGE]
;;Subcatchment	LID	Process	Number	Area	Width	InitSat	FromImp	ToPerv	RptFile	DrainTo

[JUNCTIONS]
;;Name	Elevation	MaxDepth	InitDepth	SurDepth	Aponded
;;---------------------------------------------------------
Cisterns	0	0	0	0	0

[OUTFALLS]
;;Name	Elevation	Type	Stage	Data	Gated	Routed	To
;;----------------------------------------------------------------------------
Outfall1	0	FREE	NO

[STORAGE]

[CONDUITS]

[XSECTIONS]

[TIMESERIES]
;;Name	Date	Time	Value
;;---------------------------
NARR_3HR	01/01/2014	00:00:00	0.0
NARR_3HR	01/01/2014	03:00:00	0.0
NARR_3HR	01/01/2014	06:00:00	0.0006151574803149606
NARR_3HR	01/01/2014	09:00:00	0.001845472440944882
NARR_3HR	01/01/2014	12:00:00	0.014763779527559057
NARR_3HR	01/01/2014	15:00:00	0.0
NARR_3HR	01/01/2014	18:00:00	0.03875492125984252
NARR_3HR	01/01/2014	21:00:00	0.0003075787401574803
NARR_3HR	01/02/2014	00:00:00	0.0
NARR_3HR	01/02/2014	03:00:00	0.0
NARR_3HR	01/02/2014	06:00:00	0.0
NARR_3HR	01/02/2014	09:00:00	0.0003075787401574803
NARR_3HR	01/02/2014	12:00:00	0.0
NARR_3HR	01/02/2014	15:00:00	0.0
NARR_3HR	01/02/2014	18:00:00	0.0
NARR_3HR	01/02/2014	21:00:00	0.0006151574803149606
NARR_3HR	01/03/2014	00:00:00	0.0
NARR_3HR	01/03/2014	03:00:00	0.0003075787401574803
NARR_3HR	01/03/2014	06:00:00	0.0024606299212598425
NARR_3HR	01/03/2014	09:00:00	0.0003075787401574803
NARR_3HR	01/03/2014	12:00:00	0.0
NARR_3HR	01/03/2014	15:00:00	0.0
NARR_3HR	01/03/2014	18:00:00	0.0
NARR_3HR	01/03/2014	21:00:00	0.0
NARR_3HR	01/04/2014	00:00:00	0.0003075787401574803
NARR_3HR	01/04/2014	03:00:00	0.0003075787401574803
NARR_3HR	01/04/2014	06:00:00	0.0003075787401574803
NARR_3HR	01/04/2014	09:00:00	0.0021530511811023623
NARR_3HR	01/04/2014	12:00:00	0.00922736220472441
NARR_3HR	01/04/2014	15:00:00	0.005536417322834646
NARR_3HR	01/04/2014	18:00:00	0.005536417322834646
NARR_3HR	01/04/2014	21:00:00	0.0012303149606299212
NARR_3HR	01/05/2014	00:00:00	0.004613681102362205
NARR_3HR	01/05/2014	03:00:00	0.003998523622047244
NARR_3HR	01/05/2014	06:00:00	0.0003075787401574803
NARR_3HR	01/05/2014	09:00:00	0.0
NARR_3HR	01/05/2014	12:00:00	5.452167682760344e-05
NARR_3HR	01/05/2014	15:00:00	0.03168061023622047
NARR_3HR	01/05/2014	18:00:00	0.043061023622047244
NARR_3HR	01/05/2014	21:00:00	0.02860482283464567
NARR_3HR	01/06/2014	00:00:00	0.0
NARR_3HR	01/06/2014	03:00:00	0.0003075787401574803
NARR_3HR	01/06/2014	06:00:00	0.0021530511811023623
NARR_3HR	01/06/2014	09:00:00	0.0030757874015748033
NARR_3HR	01/06/2014	12:00:00	0.0
NARR_3HR	01/06/2014	15:00:00	0.0006151574803149606
NARR_3HR	01/06/2014	18:00:00	0.004306102362204725
NARR_3HR	01/06/2014	21:00:00	0.012610728346456693
NARR_3HR	01/07/2014	00:00:00	0.0
NARR_3HR	01/07/2014	03:00:00	0.000639495945821597
NARR_3HR	01/07/2014	06:00:00	0.0024606299212598425
NARR_3HR	01/07/2014	09:00:00	0.0006151574803149606
NARR_3HR	01/07/2014	12:00:00	0.0024606299212598425
NARR_3HR	01/07/2014	15:00:00	0.0003075787401574803
NARR_3HR	01/07/2014	18:00:00	0.0003075787401574803
NARR_3HR	01/07/2014	21:00:00	0.0
NARR_3HR	01/08/2014	00:00:00	0.003998523622047244
NARR_3HR	01/08/2014	03:00:00	0.025529035433070866
NARR_3HR	01/08/2014	06:00:00	0.006151574803149607
NARR_3HR	01/08/2014	09:00:00	0.0012303149606299212
NARR_3HR	01/08/2014	12:00:00	0.005843996062992126
NARR_3HR	01/08/2014	15:00:00	0.024298720472440947
NARR_3HR	01/08/2014	18:00:00	0.015686515748031496
NARR_3HR	01/08/2014	21:00:00	0.00830462598425197
NARR_3HR	01/09/2014	00:00:00	0.001845472440944882
NARR_3HR	01/09/2014	03:00:00	0.0006151574803149606
NARR_3HR	01/09/2014	06:00:00	0.010150098425196851
NARR_3HR	01/09/2014	09:00:00	0.02614419291338583
NARR_3HR	01/09/2014	12:00:00	0.0329109251968504
NARR_3HR	01/09/2014	15:00:00	0.07228100393700788
NARR_3HR	01/09/2014	18:00:00	0.02891240157480315
NARR_3HR	01/09/2014	21:00:00	0.011687992125984252
NARR_3HR	01/10/2014	00:00:00	0.06274606299212598
NARR_3HR	01/10/2014	03:00:00	0.007074311023622048
NARR_3HR	01/10/2014	06:00:00	0.012610728346456693
NARR_3HR	01/10/2014	09:00:00	0.0024606299212598425
NARR_3HR	01/10/2014	12:00:00	0.008919783464566929
NARR_3HR	01/10/2014	15:00:00	0.0
NARR_3HR	01/10/2014	18:00:00	0.000922736220472441
NARR_3HR	01/10/2014	21:00:00	0.009269501984588743
NARR_3HR	01/11/2014	00:00:00	0.0
NARR_3HR	01/11/2014	03:00:00	2.8500698257501673e-05
NARR_3HR	01/11/2014	06:00:00	0.0003075787401574803
NARR_3HR	01/11/2014	09:00:00	0.0003075787401574803
NARR_3HR	01/11/2014	12:00:00	0.0
NARR_3HR	01/11/2014	15:00:00	0.0
NARR_3HR	01/11/2014	18:00:00	0.0
NARR_3HR	01/11/2014	21:00:00	0.0
NARR_3HR	01/12/2014	00:00:00	0.0
NARR_3HR	01/12/2014	03:00:00	0.0030757874015748033
NARR_3HR	01/12/2014	06:00:00	0.0
NARR_3HR	01/12/2014	09:00:00	0.020300196850393703
NARR_3HR	01/12/2014	12:00:00	0.0
NARR_3HR	01/12/2014	15:00:00	0.0
NARR_3HR	01/12/2014	18:00:00	0.0
NARR_3HR	01/12/2014	21:00:00	0.0
NARR_3HR	01/13/2014	00:00:00	0.0
NARR_3HR	01/13/2014	03:00:00	0.0
NARR_3HR	01/13/2014	06:00:00	0.0
NARR_3HR	01/13/2014	09:00:00	0.0
NARR_3HR	01/13/2014	12:00:00	0.0
NARR_3HR	01/13/2014	15:00:00	0.0
NARR_3HR	01/13/2014	18:00:00	0.0
NARR_3HR	01/13/2014	21:00:00	0.0
NARR_3HR	01/14/2014	00:00:00	0.0
NARR_3HR	01/14/2014	03:00:00	0.0
NARR_3HR	01/14/2014	06:00:00	0.0
NARR_3HR	01/14/2014	09:00:00	0.0003075787401574803
NARR_3HR	01/14/2014	12:00:00	0.0
NARR_3HR	01/14/2014	15:00:00	7.380108077695051e-05
NARR_3HR	01/14/2014	18:00:00	0.0
NARR_3HR	01/14/2014	21:00:00	0.000922736220472441
NARR_3HR	01/15/2014	00:00:00	0.00013758962805287577
NARR_3HR	01/15/2014	03:00:00	0.0
NARR_3HR	01/15/2014	06:00:00	0.000922736220472441
NARR_3HR	01/15/2014	09:00:00	0.0578248031496063
NARR_3HR	01/15/2014	12:00:00	0.008919783464566929
NARR_3HR	01/15/2014	15:00:00	0.001845472440944882
NARR_3HR	01/15/2014	18:00:00	0.0021530511811023623
NARR_3HR	01/15/2014	21:00:00	0.005536417322834646
NARR_3HR	01/16/2014	00:00:00	0.0006151574803149606
NARR_3HR	01/16/2014	03:00:00	0.0003075787401574803
NARR_3HR	01/16/2014	06:00:00	0.0
NARR_3HR	01/16/2014	09:00:00	0.015071358267716536
NARR_3HR	01/16/2014	12:00:00	0.0
NARR_3HR	01/16/2014	15:00:00	0.0
NARR_3HR	01/16/2014	18:00:00	0.0
NARR_3HR	01/16/2014	21:00:00	0.0
NARR_3HR	01/17/2014	00:00:00	0.0
NARR_3HR	01/17/2014	03:00:00	0.0
NARR_3HR	01/17/2014	06:00:00	0.0
NARR_3HR	01/17/2014	09:00:00	0.0
NARR_3HR	01/17/2014	12:00:00	0.0
NARR_3HR	01/17/2014	15:00:00	0.0
NARR_3HR	01/17/2014	18:00:00	0.0
NARR_3HR	01/17/2014	21:00:00	0.0
NARR_3HR	01/18/2014	00:00:00	0.0
NARR_3HR	01/18/2014	03:00:00	0.0
NARR_3HR	01/18/2014	06:00:00	0.0
NARR_3HR	01/18/2014	09:00:00	0.0
NARR_3HR	01/18/2014	12:00:00	0.0
NARR_3HR	01/18/2014	15:00:00	0.0
NARR_3HR	01/18/2014	18:00:00	0.0
NARR_3HR	01/18/2014	21:00:00	0.0
NARR_3HR	01/19/2014	00:00:00	5.977726944788235e-05
NARR_3HR	01/19/2014	03:00:00	0.0
NARR_3HR	01/19/2014	06:00:00	0.0
NARR_3HR	01/19/2014	09:00:00	0.0
NARR_3HR	01/19/2014	12:00:00	0.0
NARR_3HR	01/19/2014	15:00:00	0.0
NARR_3HR	01/19/2014	18:00:00	0.0
NARR_3HR	01/19/2014	21:00:00	0.0
NARR_3HR	01/20/2014	00:00:00	0.0
NARR_3HR	01/20/2014	03:00:00	0.0
NARR_3HR	01/20/2014	06:00:00	0.0
NARR_3HR	01/20/2014	09:00:00	0.0
NARR_3HR	01/20/2014	12:00:00	0.0
NARR_3HR	01/20/2014	15:00:00	0.0
NARR_3HR	01/20/2014	18:00:00	0.0
NARR_3HR	01/20/2014	21:00:00	0.0
NARR_3HR	01/21/2014	00:00:00	0.0
NARR_3HR	01/21/2014	03:00:00	0.0
NARR_3HR	01/21/2014	06:00:00	0.0
NARR_3HR	01/21/2014	09:00:00	0.0003075787401574803
NARR_3HR	01/21/2014	12:00:00	0.0003075787401574803
NARR_3HR	01/21/2014	15:00:00	0.0003075787401574803
NARR_3HR	01/21/2014	18:00:00	0.003690944881889764
NARR_3HR	01/21/2014	21:00:00	0.0030757874015748033
NARR_3HR	01/22/2014	00:00:00	0.0
NARR_3HR	01/22/2014	03:00:00	5.187613405580596e-05
NARR_3HR	01/22/2014	06:00:00	0.0033833661417322835
NARR_3HR	01/22/2014	09:00:00	0.0003075787401574803
NARR_3HR	01/22/2014	12:00:00	0.0
NARR_3HR	01/22/2014	15:00:00	0.0
NARR_3HR	01/22/2014	18:00:00	0.0
NARR_3HR	01/22/2014	21:00:00	0.0
NARR_3HR	01/23/2014	00:00:00	0.0
NARR_3HR	01/23/2014	03:00:00	0.0
NARR_3HR	01/23/2014	06:00:00	0.0
NARR_3HR	01/23/2014	09:00:00	0.0
NARR_3HR	01/23/2014	12:00:00	0.0
NARR_3HR	01/23/2014	15:00:00	0.0
NARR_3HR	01/23/2014	18:00:00	0.0
NARR_3HR	01/23/2014	21:00:00	0.0
NARR_3HR	01/24/2014	00:00:00	0.0
NARR_3HR	01/24/2014	03:00:00	0.0
NARR_3HR	01/24/2014	06:00:00	0.0
NARR_3HR	01/24/2014	09:00:00	0.0003075787401574803
NARR_3HR	01/24/2014	12:00:00	0.0
NARR_3HR	01/24/2014	15:00:00	0.0
NARR_3HR	01/24/2014	18:00:00	0.0
NARR_3HR	01/24/2014	21:00:00	0.0
NARR_3HR	01/25/2014	00:00:00	0.0
NARR_3HR	01/25/2014	03:00:00	0.0
NARR_3HR	01/25/2014	06:00:00	0.0
NARR_3HR	01/25/2014	09:00:00	0.0006151574803149606
NARR_3HR	01/25/2014	12:00:00	0.0
NARR_3HR	01/25/2014	15:00:00	0.0
NARR_3HR	01/25/2014	18:00:00	0.0
NARR_3HR	01/25/2014	21:00:00	0.0
NARR_3HR	01/26/2014	00:00:00	0.0
NARR_3HR	01/26/2014	03:00:00	0.0
NARR_3HR	01/26/2014	06:00:00	0.0
NARR_3HR	01/26/2014	09:00:00	0.0
NARR_3HR	01/26/2014	12:00:00	0.0
NARR_3HR	01/26/2014	15:00:00	0.0
NARR_3HR	01/26/2014	18:00:00	0.0
NARR_3HR	01/26/2014	21:00:00	0.0
NARR_3HR	01/27/2014	00:00:00	0.0
NARR_3HR	01/27/2014	03:00:00	0.0
NARR_3HR	01/27/2014	06:00:00	0.0
NARR_3HR	01/27/2014	09:00:00	1.3105981931911679e-05
NARR_3HR	01/27/2014	12:00:00	0.0
NARR_3HR	01/27/2014	15:00:00	2.142129920599029e-05
NARR_3HR	01/27/2014	18:00:00	0.0
NARR_3HR	01/27/2014	21:00:00	0.0
NARR_3HR	01/28/2014	00:00:00	0.0
NARR_3HR	01/28/2014	03:00:00	0.0
NARR_3HR	01/28/2014	06:00:00	0.0
NARR_3HR	01/28/2014	09:00:00	0.0
NARR_3HR	01/28/2014	12:00:00	0.0
NARR_3HR	01/28/2014	15:00:00	0.0
NARR_3HR	01/28/2014	18:00:00	0.0
NARR_3HR	01/28/2014	21:00:00	0.0
NARR_3HR	01/29/2014	00:00:00	0.0
NARR_3HR	01/29/2014	03:00:00	0.0021530511811023623
NARR_3HR	01/29/2014	06:00:00	0.021838090551181105
NARR_3HR	01/29/2014	09:00:00	0.08950541338582678
NARR_3HR	01/29/2014	12:00:00	0.060900590551181105
NARR_3HR	01/29/2014	15:00:00	0.014456200787401575
NARR_3HR	01/29/2014	18:00:00	0.05136564960629922
NARR_3HR	01/29/2014	21:00:00	0.031065452755905512
NARR_3HR	01/30/2014	00:00:00	0.05290354330708662
NARR_3HR	01/30/2014	03:00:00	0.014148622047244095
NARR_3HR	01/30/2014	06:00:00	0.004306102362204725
NARR_3HR	01/30/2014	09:00:00	0.01512704637106948
NARR_3HR	01/30/2014	12:00:00	0.00984251968503937
NARR_3HR	01/30/2014	15:00:00	0.03629429133858268
NARR_3HR	01/30/2014	18:00:00	0.025221456692913386
NARR_3HR	01/30/2014	21:00:00	0.062130905511811024
NARR_3HR	01/31/2014	00:00:00	0.017531988188976378
NARR_3HR	01/31/2014	03:00:00	0.2282234251968504
NARR_3HR	01/31/2014	06:00:00	0.10734498031496063
NARR_3HR	01/31/2014	09:00:00	0.0187623031496063
NARR_3HR	01/31/2014	12:00:00	0.0018783317013519017
NARR_3HR	01/31/2014	15:00:00	0.00034552294848941447
NARR_3HR	01/31/2014	18:00:00	0.0006151574803149606
NARR_3HR	01/31/2014	21:00:00	0.017839566929133858
NARR_3HR	02/01/2014	00:00:00	0.0
NARR_3HR	02/01/2014	03:00:00	0.0
NARR_3HR	02/01/2014	06:00:00	0.0
NARR_3HR	02/01/2014	09:00:00	0.0
NARR_3HR	02/01/2014	12:00:00	0.0006151574803149606
NARR_3HR	02/01/2014	15:00:00	0.0
NARR_3HR	02/01/2014	18:00:00	0.0
NARR_3HR	02/01/2014	21:00:00	0.0
NARR_3HR	02/02/2014	00:00:00	0.0003075787401574803
NARR_3HR	02/02/2014	03:00:00	0.0
NARR_3HR	02/02/2014	06:00:00	0.0
NARR_3HR	02/02/2014	09:00:00	0.0
NARR_3HR	02/02/2014	12:00:00	0.0
NARR_3HR	02/02/2014	15:00:00	0.013841043307086616
NARR_3HR	02/02/2014	18:00:00	0.000922736220472441
NARR_3HR	02/02/2014	21:00:00	0.003998523622047244
NARR_3HR	02/03/2014	00:00:00	0.0003075787401574803
NARR_3HR	02/03/2014	03:00:00	0.0006151574803149606
NARR_3HR	02/03/2014	06:00:00	0.0003075787401574803
NARR_3HR	02/03/2014	09:00:00	0.0003075787401574803
NARR_3HR	02/03/2014	12:00:00	0.0003075787401574803
NARR_3HR	02/03/2014	15:00:00	0.0
NARR_3HR	02/03/2014	18:00:00	0.0009650225186441828
NARR_3HR	02/03/2014	21:00:00	0.0012303149606299212
NARR_3HR	02/04/2014	00:00:00	0.021838090551181105
NARR_3HR	02/04/2014	03:00:00	0.012303149606299213
NARR_3HR	02/04/2014	06:00:00	0.0003075787401574803
NARR_3HR	02/04/2014	09:00:00	0.0003075787401574803
NARR_3HR	02/04/2014	12:00:00	0.0015378937007874017
NARR_3HR	02/04/2014	15:00:00	0.0025417787704880785
NARR_3HR	02/04/2014	18:00:00	0.0003075787401574803
NARR_3HR	02/04/2014	21:00:00	0.0003075787401574803
NARR_3HR	02/05/2014	00:00:00	0.0
NARR_3HR	02/05/2014	03:00:00	0.0012303149606299212
NARR_3HR	02/05/2014	06:00:00	0.000922736220472441
NARR_3HR	02/05/2014	09:00:00	0.0003075787401574803
NARR_3HR	02/05/2014	12:00:00	0.0003075787401574803
NARR_3HR	02/05/2014	15:00:00	0.0003075787401574803
NARR_3HR	02/05/2014	18:00:00	0.007381889763779528
NARR_3HR	02/05/2014	21:00:00	0.1033464566929134
NARR_3HR	02/06/2014	00:00:00	0.0003075787401574803
NARR_3HR	02/06/2014	03:00:00	0.0
NARR_3HR	02/06/2014	06:00:00	0.00011807246185017853
NARR_3HR	02/06/2014	09:00:00	0.0006151574803149606
NARR_3HR	02/06/2014	12:00:00	0.0006151574803149606
NARR_3HR	02/06/2014	15:00:00	0.0
NARR_3HR	02/06/2014	18:00:00	0.0012303149606299212
NARR_3HR	02/06/2014	21:00:00	0.000922736220472441
NARR_3HR	02/07/2014	00:00:00	0.0
NARR_3HR	02/07/2014	03:00:00	1.0912460604990562e-05
NARR_3HR	02/07/2014	06:00:00	0.0
NARR_3HR	02/07/2014	09:00:00	0.0
NARR_3HR	02/07/2014	12:00:00	0.0001136738509966398
NARR_3HR	02/07/2014	15:00:00	0.0
NARR_3HR	02/07/2014	18:00:00	0.0
NARR_3HR	02/07/2014	21:00:00	0.0
NARR_3HR	02/08/2014	00:00:00	0.0003075787401574803
NARR_3HR	02/08/2014	03:00:00	0.0003075787401574803
NARR_3HR	02/08/2014	06:00:00	0.0
NARR_3HR	02/08/2014	09:00:00	0.0
NARR_3HR	02/08/2014	12:00:00	0.004306102362204725
NARR_3HR	02/08/2014	15:00:00	0.0
NARR_3HR	02/08/2014	18:00:00	0.0
NARR_3HR	02/08/2014	21:00:00	0.0024606299212598425
NARR_3HR	02/09/2014	00:00:00	0.0
NARR_3HR	02/09/2014	03:00:00	0.0
NARR_3HR	02/09/2014	06:00:00	0.0
NARR_3HR	02/09/2014	09:00:00	0.0012303149606299212
NARR_3HR	02/09/2014	12:00:00	0.0003075787401574803
NARR_3HR	02/09/2014	15:00:00	0.0021530511811023623
NARR_3HR	02/09/2014	18:00:00	0.0003075787401574803
NARR_3HR	02/09/2014	21:00:00	0.0
NARR_3HR	02/10/2014	00:00:00	0.0
NARR_3HR	02/10/2014	03:00:00	0.0
NARR_3HR	02/10/2014	06:00:00	0.0
NARR_3HR	02/10/2014	09:00:00	0.0003075787401574803
NARR_3HR	02/10/2014	12:00:00	0.0
NARR_3HR	02/10/2014	15:00:00	0.0
NARR_3HR	02/10/2014	18:00:00	0.0
NARR_3HR	02/10/2014	21:00:00	0.0
NARR_3HR	02/11/2014	00:00:00	0.0
NARR_3HR	02/11/2014	03:00:00	0.0
NARR_3HR	02/11/2014	06:00:00	0.0
NARR_3HR	02/11/2014	09:00:00	0.0
NARR_3HR	02/11/2014	12:00:00	0.0003075787401574803
NARR_3HR	02/11/2014	15:00:00	0.0
NARR_3HR	02/11/2014	18:00:00	2.757291397534487e-05
NARR_3HR	02/11/2014	21:00:00	0.0
NARR_3HR	02/12/2014	00:00:00	0.0
NARR_3HR	02/12/2014	03:00:00	0.0
NARR_3HR	02/12/2014	06:00:00	0.0
NARR_3HR	02/12/2014	09:00:00	0.0
NARR_3HR	02/12/2014	12:00:00	0.0
NARR_3HR	02/12/2014	15:00:00	0.0015905606523742826
NARR_3HR	02/12/2014	18:00:00	0.0
NARR_3HR	02/12/2014	21:00:00	0.05813238188976378
NARR_3HR	02/13/2014	00:00:00	0.029835137795275593
NARR_3HR	02/13/2014	03:00:00	0.1642470472440945
NARR_3HR	02/13/2014	06:00:00	0.008919783464566929
NARR_3HR	02/13/2014	09:00:00	0.011072834645669292
NARR_3HR	02/13/2014	12:00:00	0.04582923228346457
NARR_3HR	02/13/2014	15:00:00	0.0
NARR_3HR	02/13/2014	18:00:00	0.000922736220472441
NARR_3HR	02/13/2014	21:00:00	0.013225885826771654
NARR_3HR	02/14/2014	00:00:00	0.0
NARR_3HR	02/14/2014	03:00:00	0.0
NARR_3HR	02/14/2014	06:00:00	0.0
NARR_3HR	02/14/2014	09:00:00	0.0
NARR_3HR	02/14/2014	12:00:00	0.0
NARR_3HR	02/14/2014	15:00:00	0.0
NARR_3HR	02/14/2014	18:00:00	0.0
NARR_3HR	02/14/2014	21:00:00	0.0
NARR_3HR	02/15/2014	00:00:00	0.0
NARR_3HR	02/15/2014	03:00:00	0.0
NARR_3HR	02/15/2014	06:00:00	0.0
NARR_3HR	02/15/2014	09:00:00	0.0
NARR_3HR	02/15/2014	12:00:00	0.0
NARR_3HR	02/15/2014	15:00:00	0.0
NARR_3HR	02/15/2014	18:00:00	0.0
NARR_3HR	02/15/2014	21:00:00	0.0
NARR_3HR	02/16/2014	00:00:00	0.0
NARR_3HR	02/16/2014	03:00:00	0.0
NARR_3HR	02/16/2014	06:00:00	0.0
NARR_3HR	02/16/2014	09:00:00	0.0
NARR_3HR	02/16/2014	12:00:00	0.0
NARR_3HR	02/16/2014	15:00:00	0.0
NARR_3HR	02/16/2014	18:00:00	3.404475337877048e-05
NARR_3HR	02/16/2014	21:00:00	0.0
NARR_3HR	02/17/2014	00:00:00	0.0
NARR_3HR	02/17/2014	03:00:00	0.0
NARR_3HR	02/17/2014	06:00:00	0.0
NARR_3HR	02/17/2014	09:00:00	0.0
NARR_3HR	02/17/2014	12:00:00	0.0
NARR_3HR	02/17/2014	15:00:00	0.0
NARR_3HR	02/17/2014	18:00:00	0.0
NARR_3HR	02/17/2014	21:00:00	0.0
NARR_3HR	02/18/2014	00:00:00	0.0
NARR_3HR	02/18/2014	03:00:00	0.0
NARR_3HR	02/18/2014	06:00:00	0.0
NARR_3HR	02/18/2014	09:00:00	0.0
NARR_3HR	02/18/2014	12:00:00	0.0
NARR_3HR	02/18/2014	15:00:00	0.0
NARR_3HR	02/18/2014	18:00:00	0.0
NARR_3HR	02/18/2014	21:00:00	0.0
NARR_3HR	02/19/2014	00:00:00	0.0
NARR_3HR	02/19/2014	03:00:00	0.0
NARR_3HR	02/19/2014	06:00:00	0.0
NARR_3HR	02/19/2014	09:00:00	0.00011764553844870076
NARR_3HR	02/19/2014	12:00:00	0.0
NARR_3HR	02/19/2014	15:00:00	0.0
NARR_3HR	02/19/2014	18:00:00	0.0
NARR_3HR	02/19/2014	21:00:00	0.0
NARR_3HR	02/20/2014	00:00:00	0.0
NARR_3HR	02/20/2014	03:00:00	0.0
NARR_3HR	02/20/2014	06:00:00	0.0
NARR_3HR	02/20/2014	09:00:00	0.0
NARR_3HR	02/20/2014	12:00:00	0.0
NARR_3HR	02/20/2014	15:00:00	0.000922736220472441
NARR_3HR	02/20/2014	18:00:00	0.0006151574803149606
NARR_3HR	02/20/2014	21:00:00	0.0003075787401574803
NARR_3HR	02/21/2014	00:00:00	4.507454596166536e-06
NARR_3HR	02/21/2014	03:00:00	0.00011759875232251141
NARR_3HR	02/21/2014	06:00:00	9.321086072018298e-07
NARR_3HR	02/21/2014	09:00:00	0.0
NARR_3HR	02/21/2014	12:00:00	0.0
NARR_3HR	02/21/2014	15:00:00	0.0
NARR_3HR	02/21/2014	18:00:00	0.0
NARR_3HR	02/21/2014	21:00:00	0.0
NARR_3HR	02/22/2014	00:00:00	0.0
NARR_3HR	02/22/2014	03:00:00	0.0
NARR_3HR	02/22/2014	06:00:00	0.0
NARR_3HR	02/22/2014	09:00:00	0.0
NARR_3HR	02/22/2014	12:00:00	0.0
NARR_3HR	02/22/2014	15:00:00	0.0
NARR_3HR	02/22/2014	18:00:00	0.0
NARR_3HR	02/22/2014	21:00:00	0.0033833661417322835
NARR_3HR	02/23/2014	00:00:00	0.0003432111418622685
NARR_3HR	02/23/2014	03:00:00	0.0
NARR_3HR	02/23/2014	06:00:00	0.0
NARR_3HR	02/23/2014	09:00:00	0.0
NARR_3HR	02/23/2014	12:00:00	0.0
NARR_3HR	02/23/2014	15:00:00	0.0
NARR_3HR	02/23/2014	18:00:00	0.000922736220472441
NARR_3HR	02/23/2014	21:00:00	0.0003075787401574803
NARR_3HR	02/24/2014	00:00:00	0.0012303149606299212
NARR_3HR	02/24/2014	03:00:00	0.0006151574803149606
NARR_3HR	02/24/2014	06:00:00	0.0
NARR_3HR	02/24/2014	09:00:00	0.0003075787401574803
NARR_3HR	02/24/2014	12:00:00	0.0
NARR_3HR	02/24/2014	15:00:00	0.0
NARR_3HR	02/24/2014	18:00:00	7.69163822887216e-05
NARR_3HR	02/24/2014	21:00:00	0.0
NARR_3HR	02/25/2014	00:00:00	0.0012303149606299212
NARR_3HR	02/25/2014	03:00:00	0.0
NARR_3HR	02/25/2014	06:00:00	0.0
NARR_3HR	02/25/2014	09:00:00	0.0003075787401574803
NARR_3HR	02/25/2014	12:00:00	0.0
NARR_3HR	02/25/2014	15:00:00	0.0
NARR_3HR	02/25/2014	18:00:00	0.0
NARR_3HR	02/25/2014	21:00:00	0.005228838582677166
NARR_3HR	02/26/2014	00:00:00	0.0
NARR_3HR	02/26/2014	03:00:00	0.0
NARR_3HR	02/26/2014	06:00:00	0.0
NARR_3HR	02/26/2014	09:00:00	0.0
NARR_3HR	02/26/2014	12:00:00	0.0
NARR_3HR	02/26/2014	15:00:00	0.0
NARR_3HR	02/26/2014	18:00:00	0.0006151574803149606
NARR_3HR	02/26/2014	21:00:00	0.005843996062992126
NARR_3HR	02/27/2014	00:00:00	0.0
NARR_3HR	02/27/2014	03:00:00	0.000922736220472441
NARR_3HR	02/27/2014	06:00:00	0.0024606299212598425
NARR_3HR	02/27/2014	09:00:00	0.010150098425196851
NARR_3HR	02/27/2014	12:00:00	0.0
NARR_3HR	02/27/2014	15:00:00	0.0
NARR_3HR	02/27/2014	18:00:00	0.0
NARR_3HR	02/27/2014	21:00:00	0.001845472440944882
NARR_3HR	02/28/2014	00:00:00	0.010765255905511811
NARR_3HR	02/28/2014	03:00:00	0.031065452755905512
NARR_3HR	02/28/2014	06:00:00	0.003690944881889764
NARR_3HR	02/28/2014	09:00:00	0.01660925196850394
NARR_3HR	02/28/2014	12:00:00	0.002768208661417323
NARR_3HR	02/28/2014	15:00:00	0.0006151574803149606
NARR_3HR	02/28/2014	18:00:00	0.0003075787401574803
NARR_3HR	02/28/2014	21:00:00	0.0
NARR_3HR	03/01/2014	00:00:00	0.0
NARR_3HR	03/01/2014	03:00:00	0.0
NARR_3HR	03/01/2014	06:00:00	0.00013760881366457528
NARR_3HR	03/01/2014	09:00:00	0.0
NARR_3HR	03/01/2014	12:00:00	0.0
NARR_3HR	03/01/2014	15:00:00	0.0
NARR_3HR	03/01/2014	18:00:00	0.0
NARR_3HR	03/01/2014	21:00:00	0.0
NARR_3HR	03/02/2014	00:00:00	0.0
NARR_3HR	03/02/2014	03:00:00	0.0
NARR_3HR	03/02/2014	06:00:00	0.0
NARR_3HR	03/02/2014	09:00:00	0.0
NARR_3HR	03/02/2014	12:00:00	0.0
NARR_3HR	03/02/2014	15:00:00	0.0
NARR_3HR	03/02/2014	18:00:00	0.0
NARR_3HR	03/02/2014	21:00:00	0.0
NARR_3HR	03/03/2014	00:00:00	0.0
NARR_3HR	03/03/2014	03:00:00	0.0
NARR_3HR	03/03/2014	06:00:00	0.0
NARR_3HR	03/03/2014	09:00:00	0.0
NARR_3HR	03/03/2014	12:00:00	0.0
NARR_3HR	03/03/2014	15:00:00	0.0
NARR_3HR	03/03/2014	18:00:00	0.0
NARR_3HR	03/03/2014	21:00:00	0.0
NARR_3HR	03/04/2014	00:00:00	0.0
NARR_3HR	03/04/2014	03:00:00	0.0
NARR_3HR	03/04/2014	06:00:00	0.0
NARR_3HR	03/04/2014	09:00:00	0.0
NARR_3HR	03/04/2014	12:00:00	0.0
NARR_3HR	03/04/2014	15:00:00	0.0
NARR_3HR	03/04/2014	18:00:00	0.0
NARR_3HR	03/04/2014	21:00:00	0.0
NARR_3HR	03/05/2014	00:00:00	0.0
NARR_3HR	03/05/2014	03:00:00	0.0
NARR_3HR	03/05/2014	06:00:00	0.0
NARR_3HR	03/05/2014	09:00:00	0.0
NARR_3HR	03/05/2014	12:00:00	0.0
NARR_3HR	03/05/2014	15:00:00	0.0015378937007874017
NARR_3HR	03/05/2014	18:00:00	0.013225885826771654
NARR_3HR	03/05/2014	21:00:00	0.09442667322834646
NARR_3HR	03/06/2014	00:00:00	0.0012303149606299212
NARR_3HR	03/06/2014	03:00:00	0.0
NARR_3HR	03/06/2014	06:00:00	0.0
NARR_3HR	03/06/2014	09:00:00	0.0003075787401574803
NARR_3HR	03/06/2014	12:00:00	0.004613681102362205
NARR_3HR	03/06/2014	15:00:00	0.010457677165354331
NARR_3HR	03/06/2014	18:00:00	0.10888287401574803
NARR_3HR	03/06/2014	21:00:00	0.06982037401574803
NARR_3HR	03/07/2014	00:00:00	0.0003075787401574803
NARR_3HR	03/07/2014	03:00:00	0.0003075787401574803
NARR_3HR	03/07/2014	06:00:00	0.004306102362204725
NARR_3HR	03/07/2014	09:00:00	0.08427657480314961
NARR_3HR	03/07/2014	12:00:00	0.0
NARR_3HR	03/07/2014	15:00:00	0.0
NARR_3HR	03/07/2014	18:00:00	0.0003075787401574803
NARR_3HR	03/07/2014	21:00:00	0.0
NARR_3HR	03/08/2014	00:00:00	0.0
NARR_3HR	03/08/2014	03:00:00	0.0
NARR_3HR	03/08/2014	06:00:00	0.0
NARR_3HR	03/08/2014	09:00:00	0.0
NARR_3HR	03/08/2014	12:00:00	0.0
NARR_3HR	03/08/2014	15:00:00	0.0
NARR_3HR	03/08/2014	18:00:00	0.0
NARR_3HR	03/08/2014	21:00:00	0.0
NARR_3HR	03/09/2014	00:00:00	0.0
NARR_3HR	03/09/2014	03:00:00	0.0
NARR_3HR	03/09/2014	06:00:00	0.0
NARR_3HR	03/09/2014	09:00:00	0.00011135683776297439
NARR_3HR	03/09/2014	12:00:00	0.0
NARR_3HR	03/09/2014	15:00:00	0.0
NARR_3HR	03/09/2014	18:00:00	0.0
NARR_3HR	03/09/2014	21:00:00	0.0
NARR_3HR	03/10/2014	00:00:00	0.0
NARR_3HR	03/10/2014	03:00:00	0.0
NARR_3HR	03/10/2014	06:00:00	0.0
NARR_3HR	03/10/2014	09:00:00	0.0
NARR_3HR	03/10/2014	12:00:00	0.0
NARR_3HR	03/10/2014	15:00:00	0.0
NARR_3HR	03/10/2014	18:00:00	0.0
NARR_3HR	03/10/2014	21:00:00	0.0
NARR_3HR	03/11/2014	00:00:00	0.0
NARR_3HR	03/11/2014	03:00:00	0.0
NARR_3HR	03/11/2014	06:00:00	0.0
NARR_3HR	03/11/2014	09:00:00	0.0
NARR_3HR	03/11/2014	12:00:00	0.0
NARR_3HR	03/11/2014	15:00:00	0.0
NARR_3HR	03/11/2014	18:00:00	0.0
NARR_3HR	03/11/2014	21:00:00	0.0
NARR_3HR	03/12/2014	00:00:00	0.0
NARR_3HR	03/12/2014	03:00:00	0.0
NARR_3HR	03/12/2014	06:00:00	0.0
NARR_3HR	03/12/2014	09:00:00	0.0
NARR_3HR	03/12/2014	12:00:00	0.0
NARR_3HR	03/12/2014	15:00:00	0.0003290274657133058
NARR_3HR	03/12/2014	18:00:00	0.0
NARR_3HR	03/12/2014	21:00:00	0.0
NARR_3HR	03/13/2014	00:00:00	0.0
NARR_3HR	03/13/2014	03:00:00	0.0012303149606299212
NARR_3HR	03/13/2014	06:00:00	0.0006151574803149606
NARR_3HR	03/13/2014	09:00:00	0.0
NARR_3HR	03/13/2014	12:00:00	0.0
NARR_3HR	03/13/2014	15:00:00	0.0
NARR_3HR	03/13/2014	18:00:00	0.0
NARR_3HR	03/13/2014	21:00:00	0.0
NARR_3HR	03/14/2014	00:00:00	0.0
NARR_3HR	03/14/2014	03:00:00	0.0
NARR_3HR	03/14/2014	06:00:00	0.0
NARR_3HR	03/14/2014	09:00:00	0.0012303149606299212
NARR_3HR	03/14/2014	12:00:00	0.0
NARR_3HR	03/14/2014	15:00:00	0.0
NARR_3HR	03/14/2014	18:00:00	0.0
NARR_3HR	03/14/2014	21:00:00	0.0
NARR_3HR	03/15/2014	00:00:00	0.0
NARR_3HR	03/15/2014	03:00:00	0.0
NARR_3HR	03/15/2014	06:00:00	0.0
NARR_3HR	03/15/2014	09:00:00	0.0
NARR_3HR	03/15/2014	12:00:00	0.0
NARR_3HR	03/15/2014	15:00:00	9.176899737671135e-05
NARR_3HR	03/15/2014	18:00:00	0.0
NARR_3HR	03/15/2014	21:00:00	0.0
NARR_3HR	03/16/2014	00:00:00	0.0
NARR_3HR	03/16/2014	03:00:00	0.0006151574803149606
NARR_3HR	03/16/2014	06:00:00	0.0
NARR_3HR	03/16/2014	09:00:00	0.0
NARR_3HR	03/16/2014	12:00:00	0.0
NARR_3HR	03/16/2014	15:00:00	0.0
NARR_3HR	03/16/2014	18:00:00	0.0
NARR_3HR	03/16/2014	21:00:00	0.0003075787401574803
NARR_3HR	03/17/2014	00:00:00	0.0
NARR_3HR	03/17/2014	03:00:00	0.0
NARR_3HR	03/17/2014	06:00:00	0.0
NARR_3HR	03/17/2014	09:00:00	0.0
NARR_3HR	03/17/2014	12:00:00	0.0
NARR_3HR	03/17/2014	15:00:00	0.0
NARR_3HR	03/17/2014	18:00:00	0.0
NARR_3HR	03/17/2014	21:00:00	0.0030757874015748033
NARR_3HR	03/18/2014	00:00:00	0.0
NARR_3HR	03/18/2014	03:00:00	0.0
NARR_3HR	03/18/2014	06:00:00	0.005536417322834646
NARR_3HR	03/18/2014	09:00:00	0.19838828740157483
NARR_3HR	03/18/2014	12:00:00	0.12610728346456693
NARR_3HR	03/18/2014	15:00:00	0.0006151574803149606
NARR_3HR	03/18/2014	18:00:00	0.0
NARR_3HR	03/18/2014	21:00:00	0.0
NARR_3HR	03/19/2014	00:00:00	0.0
NARR_3HR	03/19/2014	03:00:00	0.0
NARR_3HR	03/19/2014	06:00:00	5.7246262852953176e-05
NARR_3HR	03/19/2014	09:00:00	0.0
NARR_3HR	03/19/2014	12:00:00	0.0
NARR_3HR	03/19/2014	15:00:00	0.0
NARR_3HR	03/19/2014	18:00:00	0.0
NARR_3HR	03/19/2014	21:00:00	0.012303149606299213
NARR_3HR	03/20/2014	00:00:00	0.0003075787401574803
NARR_3HR	03/20/2014	03:00:00	0.0003075787401574803
NARR_3HR	03/20/2014	06:00:00	0.0344488188976378
NARR_3HR	03/20/2014	09:00:00	0.15809547244094488
NARR_3HR	03/20/2014	12:00:00	0.0
NARR_3HR	03/20/2014	15:00:00	0.0
NARR_3HR	03/20/2014	18:00:00	0.0015378937007874017
NARR_3HR	03/20/2014	21:00:00	0.0024606299212598425
NARR_3HR	03/21/2014	00:00:00	0.0
NARR_3HR	03/21/2014	03:00:00	0.0
NARR_3HR	03/21/2014	06:00:00	0.0
NARR_3HR	03/21/2014	09:00:00	0.0
NARR_3HR	03/21/2014	12:00:00	0.0
NARR_3HR	03/21/2014	15:00:00	0.0
NARR_3HR	03/21/2014	18:00:00	0.0
NARR_3HR	03/21/2014	21:00:00	0.0003075787401574803
NARR_3HR	03/22/2014	00:00:00	0.0
NARR_3HR	03/22/2014	03:00:00	0.006151574803149607
NARR_3HR	03/22/2014	06:00:00	0.0006151574803149606
NARR_3HR	03/22/2014	09:00:00	0.0006151574803149606
NARR_3HR	03/22/2014	12:00:00	0.03813976377952756
NARR_3HR	03/22/2014	15:00:00	0.0033833661417322835
NARR_3HR	03/22/2014	18:00:00	0.007381889763779528
NARR_3HR	03/22/2014	21:00:00	0.0033833661417322835
NARR_3HR	03/23/2014	00:00:00	0.0003075787401574803
NARR_3HR	03/23/2014	03:00:00	0.000922736220472441
NARR_3HR	03/23/2014	06:00:00	0.0006151574803149606
NARR_3HR	03/23/2014	09:00:00	0.0
NARR_3HR	03/23/2014	12:00:00	0.0
NARR_3HR	03/23/2014	15:00:00	0.0
NARR_3HR	03/23/2014	18:00:00	0.0012303149606299212
NARR_3HR	03/23/2014	21:00:00	0.0
NARR_3HR	03/24/2014	00:00:00	0.0
NARR_3HR	03/24/2014	03:00:00	0.000922736220472441
NARR_3HR	03/24/2014	06:00:00	0.0
NARR_3HR	03/24/2014	09:00:00	0.0024606299212598425
NARR_3HR	03/24/2014	12:00:00	0.0030757874015748033
NARR_3HR	03/24/2014	15:00:00	0.003690944881889764
NARR_3HR	03/24/2014	18:00:00	0.0021530511811023623
NARR_3HR	03/24/2014	21:00:00	0.014456200787401575
NARR_3HR	03/25/2014	00:00:00	0.005536417322834646
NARR_3HR	03/25/2014	03:00:00	0.003998523622047244
NARR_3HR	03/25/2014	06:00:00	0.2097687007874016