[TITLE]
;; No Green Infrastructure
;; 170319800001 Illinois, Cook County
;; Tract: 9800	Block Group: 001

[OPTIONS]
;;Option		Value
FLOW_UNITS		CFS
INFILTRATION		GREEN_AMPT
FLOW_ROUTING		KINWAVE
LINK_OFFSETS		DEPTH
MIN_SLOPE		0
ALLOW_PONDING		NO
SKIP_STEADY_STATE	NO

START_DATE		01/01/2014
START_TIME		00:00:00
REPORT_START_DATE	01/01/2014
REPORT_START_TIME	00:00:00
END_DATE		12/31/2014
END_TIME		23:59:59
SWEEP_START		01/01
SWEEP_END		12/31
DRY_DAYS		0
REPORT_STEP		01:00:00
WET_STEP		00:06:00
DRY_STEP		00:06:00
ROUTING_STEP		00:01:00

INERTIAL_DAMPING	PARTIAL
NORMAL_FLOW_LIMITED	BOTH
FORCE_MAIN_EQUATION	H-W
VARIABLE_STEP		0.75
LENGTHENING_STEP	0
MIN_SURFAREA		12.557
MAX_TRIALS		8
HEAD_TOLERANCE		0.005
SYS_FLOW_TOL		5
LAT_FLOW_TOL		5
MINIMUM_STEP		0.5
THREADS			1

[EVAPORATION]
;;DATA	Source	Parameters
;;------------------------
MONTHLY	0.019682632959949972	0.02629126631848812	0.046754532815372944	0.1036420015127182	0.15779854817652703	0.190120052516222	0.19130414870352744	0.15033754447102543	0.10281012672672271	0.05650530885238647	0.02763689118036032	0.017989829627901313	
DRY_ONLY	YES

[RAINGAGES]
;;Name	Format	Interval	SCF	Source
;;--------------------------------------------
RainGage2	VOLUME	03:00:00	1	TIMESERIES NARR_3HR

[SUBCATCHMENTS]
;;Name	Rain Gage	Outlet	Area	%Imperv	Width	%Slope	CurbLen	SnowPack
;;------------------------------------------------------------------------------
Subcatch1	RainGage2	Outfall1	4933.82198249943	69.9930132972729	1432781.90371784	1.35923671722412	0
Subcatch2	RainGage2	Outfall1	0	100	0	0	0
Subcatch3	Raingage2	Outfall1	0.000	100	0	0	0
Subcatch4	RainGage2	Cisterns	0.000	100	0	0	0

[SUBAREAS]
;;Subcatch	N-Imperv	N-Perv	S-Imperv	S-Perv	PctZero	RouteTo	PctRouted
;;---------------------------------------------------------------------------------------
Subcatch1	0.01	.302550228704907	0.05	.205100457409814	0	OUTLET
Subcatch2	0	0	0	0	0	OUTLET
Subcatch3	0	0	0	6	0	OUTLET
Subcatch4	0	0	0	0	0	OUTLET

[INFILTRATION]
;;Subcatchment	Suction	Ksat	IMD
;;------------------------------------------------------
Subcatch1	10.4954120055828	.0406376667725071	.433286705072063
Subcatch2	10.4954120055828	.0406376667725071	.433286705072063
Subcatch3	10.4954120055828	.0406376667725071	.433286705072063
Subcatch4	10.4954120055828	.0406376667725071	.433286705072063

[LID_CONTROLS]
;;Name	Type/Layer	Parameters
;;--------------------------------------------
RainGarden	BC
RainGarden	SURFACE	6	0	0	0	0
RainGarden	SOIL	12	0.45	0.1	0.05	10	10	1.6
RainGarden	STORAGE	0	0	0.4	0
RainGarden	DRAIN	0	0.5	6	6

GreenRoof	BC
GreenRoof	SURFACE	0	0	0	0	0
GreenRoof	SOIL	4	0.45	0.1	0.05	10	10	1.6
GreenRoof	STORAGE	3	0.75	0	0
GreenRoof	DRAIN	10	0.5	0	0

StreetPlanter	BC
StreetPlanter	SURFACE	6	0	0	0	0
StreetPlanter	SOIL	18	0.45	0.1	0.05	10	10	1.6
StreetPlanter	STORAGE	12	0.75	0.108	0

PorousPavement	PP
PorousPavement	SURFACE	0.05	0	0.01	3	0
PorousPavement	PAVEMENT	6	0.12	0	400	0
PorousPavement	STORAGE	18	0.75	0.108	0

[LID_USAGE]
;;Subcatchment	LID	Process	Number	Area	Width	InitSat	FromImp	ToPerv	RptFile	DrainTo

[JUNCTIONS]
;;Name	Elevation	MaxDepth	InitDepth	SurDepth	Aponded
;;---------------------------------------------------------
Cisterns	0	0	0	0	0

[OUTFALLS]
;;Name	Elevation	Type	Stage	Data	Gated	Routed	To
;;----------------------------------------------------------------------------
Outfall1	0	FREE	NO

[STORAGE]

[CONDUITS]

[XSECTIONS]

[TIMESERIES]
;;Name	Date	Time	Value
;;---------------------------
NARR_3HR	01/01/2014	00:00:00	0.025221456692913386
NARR_3HR	01/01/2014	03:00:00	0.01707062007874016
NARR_3HR	01/01/2014	06:00:00	0.00953494094488189
NARR_3HR	01/01/2014	09:00:00	0.013072096456692914
NARR_3HR	01/01/2014	12:00:00	0.011995570866141734
NARR_3HR	01/01/2014	15:00:00	0.02768208661417323
NARR_3HR	01/01/2014	18:00:00	0.022760826771653545
NARR_3HR	01/01/2014	21:00:00	0.023991141732283467
NARR_3HR	01/02/2014	00:00:00	0.013533464566929134
NARR_3HR	01/02/2014	03:00:00	0.017839566929133858
NARR_3HR	01/02/2014	06:00:00	0.012764517716535433
NARR_3HR	01/02/2014	09:00:00	0.022453248031496065
NARR_3HR	01/02/2014	12:00:00	0.023375984251968504
NARR_3HR	01/02/2014	15:00:00	0.022453248031496065
NARR_3HR	01/02/2014	18:00:00	0.005536417322834646
NARR_3HR	01/02/2014	21:00:00	0.0015378937007874017
NARR_3HR	01/03/2014	00:00:00	0.00015378937007874016
NARR_3HR	01/03/2014	03:00:00	0.0
NARR_3HR	01/03/2014	06:00:00	0.00015378937007874016
NARR_3HR	01/03/2014	09:00:00	0.0
NARR_3HR	01/03/2014	12:00:00	0.0
NARR_3HR	01/03/2014	15:00:00	0.011995570866141734
NARR_3HR	01/03/2014	18:00:00	0.0004613681102362205
NARR_3HR	01/03/2014	21:00:00	0.00015378937007874016
NARR_3HR	01/04/2014	00:00:00	0.0
NARR_3HR	01/04/2014	03:00:00	0.0
NARR_3HR	01/04/2014	06:00:00	0.0
NARR_3HR	01/04/2014	09:00:00	0.0
NARR_3HR	01/04/2014	12:00:00	0.0003075787401574803
NARR_3HR	01/04/2014	15:00:00	0.0003075787401574803
NARR_3HR	01/04/2014	18:00:00	0.0006151574803149606
NARR_3HR	01/04/2014	21:00:00	0.013225885826771654
NARR_3HR	01/05/2014	00:00:00	0.014609990157480315
NARR_3HR	01/05/2014	03:00:00	0.061515748031496065
NARR_3HR	01/05/2014	06:00:00	0.060593011811023625
NARR_3HR	01/05/2014	09:00:00	0.043214812992125984
NARR_3HR	01/05/2014	12:00:00	0.007128832847114623
NARR_3HR	01/05/2014	15:00:00	0.024606299212598427
NARR_3HR	01/05/2014	18:00:00	0.015686515748031496
NARR_3HR	01/05/2014	21:00:00	0.006459153543307087
NARR_3HR	01/06/2014	00:00:00	0.0010765255905511811
NARR_3HR	01/06/2014	03:00:00	0.0016916830708661418
NARR_3HR	01/06/2014	06:00:00	0.0013841043307086616
NARR_3HR	01/06/2014	09:00:00	0.0021530511811023623
NARR_3HR	01/06/2014	12:00:00	0.0007689468503937008
NARR_3HR	01/06/2014	15:00:00	0.0007689468503937008
NARR_3HR	01/06/2014	18:00:00	0.0007689468503937008
NARR_3HR	01/06/2014	21:00:00	0.0013841043307086616
NARR_3HR	01/07/2014	00:00:00	0.00984251968503937
NARR_3HR	01/07/2014	03:00:00	0.011712330298160944
NARR_3HR	01/07/2014	06:00:00	0.004306102362204725
NARR_3HR	01/07/2014	09:00:00	0.0016916830708661418
NARR_3HR	01/07/2014	12:00:00	0.0
NARR_3HR	01/07/2014	15:00:00	0.0004613681102362205
NARR_3HR	01/07/2014	18:00:00	0.0006151574803149606
NARR_3HR	01/07/2014	21:00:00	0.0004613681102362205
NARR_3HR	01/08/2014	00:00:00	0.0003075787401574803
NARR_3HR	01/08/2014	03:00:00	0.0
NARR_3HR	01/08/2014	06:00:00	0.0004613681102362205
NARR_3HR	01/08/2014	09:00:00	0.0
NARR_3HR	01/08/2014	12:00:00	0.0004613681102362205
NARR_3HR	01/08/2014	15:00:00	0.0
NARR_3HR	01/08/2014	18:00:00	0.0
NARR_3HR	01/08/2014	21:00:00	0.0
NARR_3HR	01/09/2014	00:00:00	0.0
NARR_3HR	01/09/2014	03:00:00	0.0
NARR_3HR	01/09/2014	06:00:00	0.0
NARR_3HR	01/09/2014	09:00:00	0.00015378937007874016
NARR_3HR	01/09/2014	12:00:00	0.00015378937007874016
NARR_3HR	01/09/2014	15:00:00	0.00015378937007874016
NARR_3HR	01/09/2014	18:00:00	0.0
NARR_3HR	01/09/2014	21:00:00	0.0003075787401574803
NARR_3HR	01/10/2014	00:00:00	0.000922736220472441
NARR_3HR	01/10/2014	03:00:00	0.0016916830708661418
NARR_3HR	01/10/2014	06:00:00	0.001845472440944882
NARR_3HR	01/10/2014	09:00:00	0.0007689468503937008
NARR_3HR	01/10/2014	12:00:00	0.0
NARR_3HR	01/10/2014	15:00:00	0.024606299212598427
NARR_3HR	01/10/2014	18:00:00	0.13302780511811024
NARR_3HR	01/10/2014	21:00:00	0.49632042411744126
NARR_3HR	01/11/2014	00:00:00	0.12226254921259844
NARR_3HR	01/11/2014	03:00:00	0.026787850331133747
NARR_3HR	01/11/2014	06:00:00	0.06905142716535434
NARR_3HR	01/11/2014	09:00:00	0.05874753937007875
NARR_3HR	01/11/2014	12:00:00	0.017378198818897638
NARR_3HR	01/11/2014	15:00:00	0.02583661417322835
NARR_3HR	01/11/2014	18:00:00	0.010919045275590553
NARR_3HR	01/11/2014	21:00:00	0.002768208661417323
NARR_3HR	01/12/2014	00:00:00	0.0003075787401574803
NARR_3HR	01/12/2014	03:00:00	0.0
NARR_3HR	01/12/2014	06:00:00	0.0
NARR_3HR	01/12/2014	09:00:00	0.0
NARR_3HR	01/12/2014	12:00:00	0.021222933070866142
NARR_3HR	01/12/2014	15:00:00	0.04690575787401575
NARR_3HR	01/12/2014	18:00:00	0.0030757874015748033
NARR_3HR	01/12/2014	21:00:00	0.002614419291338583
NARR_3HR	01/13/2014	00:00:00	0.0
NARR_3HR	01/13/2014	03:00:00	0.0
NARR_3HR	01/13/2014	06:00:00	0.0
NARR_3HR	01/13/2014	09:00:00	0.0
NARR_3HR	01/13/2014	12:00:00	0.0
NARR_3HR	01/13/2014	15:00:00	0.0
NARR_3HR	01/13/2014	18:00:00	0.0
NARR_3HR	01/13/2014	21:00:00	0.0
NARR_3HR	01/14/2014	00:00:00	0.0
NARR_3HR	01/14/2014	03:00:00	0.0
NARR_3HR	01/14/2014	06:00:00	0.0
NARR_3HR	01/14/2014	09:00:00	0.0
NARR_3HR	01/14/2014	12:00:00	0.00015378937007874016
NARR_3HR	01/14/2014	15:00:00	0.004995061069961608
NARR_3HR	01/14/2014	18:00:00	0.003844734251968504
NARR_3HR	01/14/2014	21:00:00	0.0004613681102362205
NARR_3HR	01/15/2014	00:00:00	0.000598957747455657
NARR_3HR	01/15/2014	03:00:00	0.003537155511811024
NARR_3HR	01/15/2014	06:00:00	0.0006151574803149606
NARR_3HR	01/15/2014	09:00:00	0.00015378937007874016
NARR_3HR	01/15/2014	12:00:00	0.0
NARR_3HR	01/15/2014	15:00:00	0.0
NARR_3HR	01/15/2014	18:00:00	0.0
NARR_3HR	01/15/2014	21:00:00	0.0
NARR_3HR	01/16/2014	00:00:00	0.0
NARR_3HR	01/16/2014	03:00:00	0.0
NARR_3HR	01/16/2014	06:00:00	0.0
NARR_3HR	01/16/2014	09:00:00	0.0
NARR_3HR	01/16/2014	12:00:00	0.0003075787401574803
NARR_3HR	01/16/2014	15:00:00	0.00015378937007874016
NARR_3HR	01/16/2014	18:00:00	0.002921998031496063
NARR_3HR	01/16/2014	21:00:00	0.007997047244094488
NARR_3HR	01/17/2014	00:00:00	0.0
NARR_3HR	01/17/2014	03:00:00	0.0
NARR_3HR	01/17/2014	06:00:00	0.0
NARR_3HR	01/17/2014	09:00:00	0.00015378937007874016
NARR_3HR	01/17/2014	12:00:00	0.0
NARR_3HR	01/17/2014	15:00:00	0.00015378937007874016
NARR_3HR	01/17/2014	18:00:00	0.00015378937007874016
NARR_3HR	01/17/2014	21:00:00	0.0004613681102362205
NARR_3HR	01/18/2014	00:00:00	0.010611466535433071
NARR_3HR	01/18/2014	03:00:00	0.0004613681102362205
NARR_3HR	01/18/2014	06:00:00	0.0
NARR_3HR	01/18/2014	09:00:00	0.0
NARR_3HR	01/18/2014	12:00:00	0.0004613681102362205
NARR_3HR	01/18/2014	15:00:00	0.000922736220472441
NARR_3HR	01/18/2014	18:00:00	0.000922736220472441
NARR_3HR	01/18/2014	21:00:00	0.003537155511811024
NARR_3HR	01/19/2014	00:00:00	0.00036735600960536267
NARR_3HR	01/19/2014	03:00:00	0.0
NARR_3HR	01/19/2014	06:00:00	0.0
NARR_3HR	01/19/2014	09:00:00	0.00015378937007874016
NARR_3HR	01/19/2014	12:00:00	0.0
NARR_3HR	01/19/2014	15:00:00	0.0
NARR_3HR	01/19/2014	18:00:00	0.0
NARR_3HR	01/19/2014	21:00:00	0.0003075787401574803
NARR_3HR	01/20/2014	00:00:00	0.0
NARR_3HR	01/20/2014	03:00:00	0.0
NARR_3HR	01/20/2014	06:00:00	0.0
NARR_3HR	01/20/2014	09:00:00	0.0007689468503937008
NARR_3HR	01/20/2014	12:00:00	0.0
NARR_3HR	01/20/2014	15:00:00	0.0
NARR_3HR	01/20/2014	18:00:00	0.0032295767716535436
NARR_3HR	01/20/2014	21:00:00	0.0053826279527559055
NARR_3HR	01/21/2014	00:00:00	0.01614788385826772
NARR_3HR	01/21/2014	03:00:00	0.04459891732283465
NARR_3HR	01/21/2014	06:00:00	0.01937746062992126
NARR_3HR	01/21/2014	09:00:00	0.007689468503937008
NARR_3HR	01/21/2014	12:00:00	0.0004613681102362205
NARR_3HR	01/21/2014	15:00:00	0.0004613681102362205
NARR_3HR	01/21/2014	18:00:00	0.005536417322834646
NARR_3HR	01/21/2014	21:00:00	0.0004613681102362205
NARR_3HR	01/22/2014	00:00:00	0.0
NARR_3HR	01/22/2014	03:00:00	5.187613405580596e-05
NARR_3HR	01/22/2014	06:00:00	0.00015378937007874016
NARR_3HR	01/22/2014	09:00:00	0.0015378937007874017
NARR_3HR	01/22/2014	12:00:00	0.0003075787401574803
NARR_3HR	01/22/2014	15:00:00	0.0013841043307086616
NARR_3HR	01/22/2014	18:00:00	0.0003075787401574803
NARR_3HR	01/22/2014	21:00:00	0.0006151574803149606
NARR_3HR	01/23/2014	00:00:00	0.0003075787401574803
NARR_3HR	01/23/2014	03:00:00	0.0004613681102362205
NARR_3HR	01/23/2014	06:00:00	0.0007689468503937008
NARR_3HR	01/23/2014	09:00:00	0.0006151574803149606
NARR_3HR	01/23/2014	12:00:00	0.0003075787401574803
NARR_3HR	01/23/2014	15:00:00	0.0006151574803149606
NARR_3HR	01/23/2014	18:00:00	0.0003075787401574803
NARR_3HR	01/23/2014	21:00:00	0.0006151574803149606
NARR_3HR	01/24/2014	00:00:00	0.0003075787401574803
NARR_3HR	01/24/2014	03:00:00	0.0003075787401574803
NARR_3HR	01/24/2014	06:00:00	0.0004613681102362205
NARR_3HR	01/24/2014	09:00:00	0.0006151574803149606
NARR_3HR	01/24/2014	12:00:00	0.0004613681102362205
NARR_3HR	01/24/2014	15:00:00	0.0004613681102362205
NARR_3HR	01/24/2014	18:00:00	0.0006151574803149606
NARR_3HR	01/24/2014	21:00:00	0.0013841043307086616
NARR_3HR	01/25/2014	00:00:00	0.0004613681102362205
NARR_3HR	01/25/2014	03:00:00	0.0179933562992126
NARR_3HR	01/25/2014	06:00:00	0.011995570866141734
NARR_3HR	01/25/2014	09:00:00	0.0024606299212598425
NARR_3HR	01/25/2014	12:00:00	0.0
NARR_3HR	01/25/2014	15:00:00	0.0003075787401574803
NARR_3HR	01/25/2014	18:00:00	0.0006151574803149606
NARR_3HR	01/25/2014	21:00:00	0.003844734251968504
NARR_3HR	01/26/2014	00:00:00	0.0
NARR_3HR	01/26/2014	03:00:00	0.0003075787401574803
NARR_3HR	01/26/2014	06:00:00	0.001999261811023622
NARR_3HR	01/26/2014	09:00:00	0.08889025590551182
NARR_3HR	01/26/2014	12:00:00	0.002768208661417323
NARR_3HR	01/26/2014	15:00:00	0.013533464566929134
NARR_3HR	01/26/2014	18:00:00	0.0006151574803149606
NARR_3HR	01/26/2014	21:00:00	0.004921259842519685
NARR_3HR	01/27/2014	00:00:00	0.015840305118110236
NARR_3HR	01/27/2014	03:00:00	0.0003075787401574803
NARR_3HR	01/27/2014	06:00:00	0.0006151574803149606
NARR_3HR	01/27/2014	09:00:00	0.0006282634622468724
NARR_3HR	01/27/2014	12:00:00	0.0
NARR_3HR	01/27/2014	15:00:00	0.00032900003936347063
NARR_3HR	01/27/2014	18:00:00	0.0006151574803149606
NARR_3HR	01/27/2014	21:00:00	0.0006151574803149606
NARR_3HR	01/28/2014	00:00:00	0.0
NARR_3HR	01/28/2014	03:00:00	0.0
NARR_3HR	01/28/2014	06:00:00	0.00015378937007874016
NARR_3HR	01/28/2014	09:00:00	0.0003075787401574803
NARR_3HR	01/28/2014	12:00:00	0.00015378937007874016
NARR_3HR	01/28/2014	15:00:00	0.0
NARR_3HR	01/28/2014	18:00:00	0.0
NARR_3HR	01/28/2014	21:00:00	0.0
NARR_3HR	01/29/2014	00:00:00	0.0
NARR_3HR	01/29/2014	03:00:00	0.0
NARR_3HR	01/29/2014	06:00:00	0.00015378937007874016
NARR_3HR	01/29/2014	09:00:00	0.0003075787401574803
NARR_3HR	01/29/2014	12:00:00	0.0006151574803149606
NARR_3HR	01/29/2014	15:00:00	0.0
NARR_3HR	01/29/2014	18:00:00	0.0
NARR_3HR	01/29/2014	21:00:00	0.0
NARR_3HR	01/30/2014	00:00:00	0.0
NARR_3HR	01/30/2014	03:00:00	0.0
NARR_3HR	01/30/2014	06:00:00	0.0
NARR_3HR	01/30/2014	09:00:00	5.568869001283421e-05
NARR_3HR	01/30/2014	12:00:00	0.0003075787401574803
NARR_3HR	01/30/2014	15:00:00	0.0003075787401574803
NARR_3HR	01/30/2014	18:00:00	0.002614419291338583
NARR_3HR	01/30/2014	21:00:00	0.0013841043307086616
NARR_3HR	01/31/2014	00:00:00	0.0006151574803149606
NARR_3HR	01/31/2014	03:00:00	0.0
NARR_3HR	01/31/2014	06:00:00	0.0
NARR_3HR	01/31/2014	09:00:00	0.0003075787401574803
NARR_3HR	01/31/2014	12:00:00	0.0006480167407219805
NARR_3HR	01/31/2014	15:00:00	0.0004993123185681546
NARR_3HR	01/31/2014	18:00:00	0.0003075787401574803
NARR_3HR	01/31/2014	21:00:00	0.005997785433070867
NARR_3HR	02/01/2014	00:00:00	0.00015378937007874016
NARR_3HR	02/01/2014	03:00:00	0.01830093503937008
NARR_3HR	02/01/2014	06:00:00	0.013687253937007874
NARR_3HR	02/01/2014	09:00:00	0.10672982283464567
NARR_3HR	02/01/2014	12:00:00	0.059977854330708666
NARR_3HR	02/01/2014	15:00:00	0.00861220472440945
NARR_3HR	02/01/2014	18:00:00	0.01860851377952756
NARR_3HR	02/01/2014	21:00:00	0.014302411417322835
NARR_3HR	02/02/2014	00:00:00	0.00015378937007874016
NARR_3HR	02/02/2014	03:00:00	0.00015378937007874016
NARR_3HR	02/02/2014	06:00:00	0.0006151574803149606
NARR_3HR	02/02/2014	09:00:00	0.00015378937007874016
NARR_3HR	02/02/2014	12:00:00	0.0
NARR_3HR	02/02/2014	15:00:00	0.0
NARR_3HR	02/02/2014	18:00:00	0.001845472440944882
NARR_3HR	02/02/2014	21:00:00	0.0
NARR_3HR	02/03/2014	00:00:00	0.0
NARR_3HR	02/03/2014	03:00:00	0.0
NARR_3HR	02/03/2014	06:00:00	0.0
NARR_3HR	02/03/2014	09:00:00	0.0
NARR_3HR	02/03/2014	12:00:00	0.0
NARR_3HR	02/03/2014	15:00:00	0.0016916830708661418
NARR_3HR	02/03/2014	18:00:00	0.013114382901529628
NARR_3HR	02/03/2014	21:00:00	0.0010765255905511811
NARR_3HR	02/04/2014	00:00:00	0.0
NARR_3HR	02/04/2014	03:00:00	0.0
NARR_3HR	02/04/2014	06:00:00	0.0
NARR_3HR	02/04/2014	09:00:00	0.0
NARR_3HR	02/04/2014	12:00:00	0.0003075787401574803
NARR_3HR	02/04/2014	15:00:00	0.0006963063295431964
NARR_3HR	02/04/2014	18:00:00	0.0
NARR_3HR	02/04/2014	21:00:00	0.004767470472440945
NARR_3HR	02/05/2014	00:00:00	0.0007689468503937008
NARR_3HR	02/05/2014	03:00:00	0.030757874015748032
NARR_3HR	02/05/2014	06:00:00	0.06413016732283465
NARR_3HR	02/05/2014	09:00:00	0.05521038385826772
NARR_3HR	02/05/2014	12:00:00	0.05813238188976378
NARR_3HR	02/05/2014	15:00:00	0.03706323818897638
NARR_3HR	02/05/2014	18:00:00	0.0006151574803149606
NARR_3HR	02/05/2014	21:00:00	0.003690944881889764
NARR_3HR	02/06/2014	00:00:00	0.0003075787401574803
NARR_3HR	02/06/2014	03:00:00	0.0003075787401574803
NARR_3HR	02/06/2014	06:00:00	0.0004256511928410981
NARR_3HR	02/06/2014	09:00:00	0.0004613681102362205
NARR_3HR	02/06/2014	12:00:00	0.0004613681102362205
NARR_3HR	02/06/2014	15:00:00	0.0004613681102362205
NARR_3HR	02/06/2014	18:00:00	0.00015378937007874016
NARR_3HR	02/06/2014	21:00:00	0.0003075787401574803
NARR_3HR	02/07/2014	00:00:00	0.0
NARR_3HR	02/07/2014	03:00:00	0.00016470183068373074
NARR_3HR	02/07/2014	06:00:00	0.0004613681102362205
NARR_3HR	02/07/2014	09:00:00	0.0003075787401574803
NARR_3HR	02/07/2014	12:00:00	0.0004212526003206809
NARR_3HR	02/07/2014	15:00:00	0.0
NARR_3HR	02/07/2014	18:00:00	0.0
NARR_3HR	02/07/2014	21:00:00	0.0
NARR_3HR	02/08/2014	00:00:00	0.0
NARR_3HR	02/08/2014	03:00:00	0.00015378937007874016
NARR_3HR	02/08/2014	06:00:00	0.0
NARR_3HR	02/08/2014	09:00:00	0.0003075787401574803
NARR_3HR	02/08/2014	12:00:00	0.0003075787401574803
NARR_3HR	02/08/2014	15:00:00	0.0
NARR_3HR	02/08/2014	18:00:00	0.012149360236220473
NARR_3HR	02/08/2014	21:00:00	0.004767470472440945
NARR_3HR	02/09/2014	00:00:00	0.013994832677165355
NARR_3HR	02/09/2014	03:00:00	0.008765994094488189
NARR_3HR	02/09/2014	06:00:00	0.0003075787401574803
NARR_3HR	02/09/2014	09:00:00	0.0006151574803149606
NARR_3HR	02/09/2014	12:00:00	0.0023068405511811026
NARR_3HR	02/09/2014	15:00:00	0.0003075787401574803
NARR_3HR	02/09/2014	18:00:00	0.0
NARR_3HR	02/09/2014	21:00:00	0.00015378937007874016
NARR_3HR	02/10/2014	00:00:00	0.00015378937007874016
NARR_3HR	02/10/2014	03:00:00	0.00015378937007874016
NARR_3HR	02/10/2014	06:00:00	0.0
NARR_3HR	02/10/2014	09:00:00	0.0003075787401574803
NARR_3HR	02/10/2014	12:00:00	0.00015378937007874016
NARR_3HR	02/10/2014	15:00:00	0.0
NARR_3HR	02/10/2014	18:00:00	0.000922736220472441
NARR_3HR	02/10/2014	21:00:00	0.0003075787401574803
NARR_3HR	02/11/2014	00:00:00	0.0
NARR_3HR	02/11/2014	03:00:00	0.0
NARR_3HR	02/11/2014	06:00:00	0.0
NARR_3HR	02/11/2014	09:00:00	0.0
NARR_3HR	02/11/2014	12:00:00	0.0
NARR_3HR	02/11/2014	15:00:00	0.0
NARR_3HR	02/11/2014	18:00:00	2.757291397534487e-05
NARR_3HR	02/11/2014	21:00:00	0.0
NARR_3HR	02/12/2014	00:00:00	0.0
NARR_3HR	02/12/2014	03:00:00	0.0
NARR_3HR	02/12/2014	06:00:00	0.0003075787401574803
NARR_3HR	02/12/2014	09:00:00	0.0006151574803149606
NARR_3HR	02/12/2014	12:00:00	0.0006151574803149606
NARR_3HR	02/12/2014	15:00:00	0.00036024569174436137
NARR_3HR	02/12/2014	18:00:00	0.0010765255905511811
NARR_3HR	02/12/2014	21:00:00	0.0007689468503937008
NARR_3HR	02/13/2014	00:00:00	0.0
NARR_3HR	02/13/2014	03:00:00	0.0
NARR_3HR	02/13/2014	06:00:00	0.0
NARR_3HR	02/13/2014	09:00:00	0.0
NARR_3HR	02/13/2014	12:00:00	0.0
NARR_3HR	02/13/2014	15:00:00	0.0003075787401574803
NARR_3HR	02/13/2014	18:00:00	0.0010765255905511811
NARR_3HR	02/13/2014	21:00:00	0.0024606299212598425
NARR_3HR	02/14/2014	00:00:00	0.00015378937007874016
NARR_3HR	02/14/2014	03:00:00	0.0032295767716535436
NARR_3HR	02/14/2014	06:00:00	0.0
NARR_3HR	02/14/2014	09:00:00	0.0
NARR_3HR	02/14/2014	12:00:00	0.00015378937007874016
NARR_3HR	02/14/2014	15:00:00	0.0
NARR_3HR	02/14/2014	18:00:00	0.00015378937007874016
NARR_3HR	02/14/2014	21:00:00	0.0
NARR_3HR	02/15/2014	00:00:00	0.0
NARR_3HR	02/15/2014	03:00:00	0.0
NARR_3HR	02/15/2014	06:00:00	0.0003075787401574803
NARR_3HR	02/15/2014	09:00:00	0.0
NARR_3HR	02/15/2014	12:00:00	0.0
NARR_3HR	02/15/2014	15:00:00	0.005228838582677166
NARR_3HR	02/15/2014	18:00:00	0.0023068405511811026
NARR_3HR	02/15/2014	21:00:00	0.0015378937007874017
NARR_3HR	02/16/2014	00:00:00	0.007074311023622048
NARR_3HR	02/16/2014	03:00:00	0.00984251968503937
NARR_3HR	02/16/2014	06:00:00	0.003537155511811024
NARR_3HR	02/16/2014	09:00:00	0.003998523622047244
NARR_3HR	02/16/2014	12:00:00	0.0
NARR_3HR	02/16/2014	15:00:00	0.00015378937007874016
NARR_3HR	02/16/2014	18:00:00	0.00403256866875596
NARR_3HR	02/16/2014	21:00:00	0.0
NARR_3HR	02/17/2014	00:00:00	0.0
NARR_3HR	02/17/2014	03:00:00	0.0
NARR_3HR	02/17/2014	06:00:00	0.0006151574803149606
NARR_3HR	02/17/2014	09:00:00	0.0006151574803149606
NARR_3HR	02/17/2014	12:00:00	0.0
NARR_3HR	02/17/2014	15:00:00	0.005843996062992126
NARR_3HR	02/17/2014	18:00:00	0.08412278543307088
NARR_3HR	02/17/2014	21:00:00	0.041523129921259845
NARR_3HR	02/18/2014	00:00:00	0.025221456692913386
NARR_3HR	02/18/2014	03:00:00	0.007689468503937008
NARR_3HR	02/18/2014	06:00:00	0.0
NARR_3HR	02/18/2014	09:00:00	0.0
NARR_3HR	02/18/2014	12:00:00	0.0
NARR_3HR	02/18/2014	15:00:00	0.013225885826771654
NARR_3HR	02/18/2014	18:00:00	0.0172244094488189
NARR_3HR	02/18/2014	21:00:00	0.0021530511811023623
NARR_3HR	02/19/2014	00:00:00	0.0003075787401574803
NARR_3HR	02/19/2014	03:00:00	0.0004613681102362205
NARR_3HR	02/19/2014	06:00:00	0.0004613681102362205
NARR_3HR	02/19/2014	09:00:00	0.00011764553844870076
NARR_3HR	02/19/2014	12:00:00	0.0
NARR_3HR	02/19/2014	15:00:00	0.0
NARR_3HR	02/19/2014	18:00:00	0.0
NARR_3HR	02/19/2014	21:00:00	0.015686515748031496
NARR_3HR	02/20/2014	00:00:00	0.0003075787401574803
NARR_3HR	02/20/2014	03:00:00	0.0003075787401574803
NARR_3HR	02/20/2014	06:00:00	0.0003075787401574803
NARR_3HR	02/20/2014	09:00:00	0.3940083661417323
NARR_3HR	02/20/2014	12:00:00	0.1642470472440945
NARR_3HR	02/20/2014	15:00:00	0.14686884842519685
NARR_3HR	02/20/2014	18:00:00	0.19177534448818898
NARR_3HR	02/20/2014	21:00:00	0.03352608267716536
NARR_3HR	02/21/2014	00:00:00	0.002772715969348517
NARR_3HR	02/21/2014	03:00:00	0.008729803632563494
NARR_3HR	02/21/2014	06:00:00	0.006460085745871536
NARR_3HR	02/21/2014	09:00:00	0.023837352362204727
NARR_3HR	02/21/2014	12:00:00	0.00015378937007874016
NARR_3HR	02/21/2014	15:00:00	0.00015378937007874016
NARR_3HR	02/21/2014	18:00:00	0.00015378937007874016
NARR_3HR	02/21/2014	21:00:00	0.0
NARR_3HR	02/22/2014	00:00:00	0.00015378937007874016
NARR_3HR	02/22/2014	03:00:00	0.00015378937007874016
NARR_3HR	02/22/2014	06:00:00	0.0
NARR_3HR	02/22/2014	09:00:00	0.0
NARR_3HR	02/22/2014	12:00:00	0.0
NARR_3HR	02/22/2014	15:00:00	0.0006151574803149606
NARR_3HR	02/22/2014	18:00:00	0.0006151574803149606
NARR_3HR	02/22/2014	21:00:00	0.0003075787401574803
NARR_3HR	02/23/2014	00:00:00	0.0003432111418622685
NARR_3HR	02/23/2014	03:00:00	0.00015378937007874016
NARR_3HR	02/23/2014	06:00:00	0.0
NARR_3HR	02/23/2014	09:00:00	0.0
NARR_3HR	02/23/2014	12:00:00	0.0
NARR_3HR	02/23/2014	15:00:00	0.0
NARR_3HR	02/23/2014	18:00:00	0.0
NARR_3HR	02/23/2014	21:00:00	0.0
NARR_3HR	02/24/2014	00:00:00	0.0
NARR_3HR	02/24/2014	03:00:00	0.0
NARR_3HR	02/24/2014	06:00:00	0.0
NARR_3HR	02/24/2014	09:00:00	0.0003075787401574803
NARR_3HR	02/24/2014	12:00:00	0.0003075787401574803
NARR_3HR	02/24/2014	15:00:00	0.0
NARR_3HR	02/24/2014	18:00:00	7.69163822887216e-05
NARR_3HR	02/24/2014	21:00:00	0.0003075787401574803
NARR_3HR	02/25/2014	00:00:00	0.0006151574803149606
NARR_3HR	02/25/2014	03:00:00	0.0006151574803149606
NARR_3HR	02/25/2014	06:00:00	0.0006151574803149606
NARR_3HR	02/25/2014	09:00:00	0.0
NARR_3HR	02/25/2014	12:00:00	0.0
NARR_3HR	02/25/2014	15:00:00	0.0
NARR_3HR	02/25/2014	18:00:00	0.00015378937007874016
NARR_3HR	02/25/2014	21:00:00	0.0003075787401574803
NARR_3HR	02/26/2014	00:00:00	0.0
NARR_3HR	02/26/2014	03:00:00	0.0004613681102362205
NARR_3HR	02/26/2014	06:00:00	0.0004613681102362205
NARR_3HR	02/26/2014	09:00:00	0.0
NARR_3HR	02/26/2014	12:00:00	0.0
NARR_3HR	02/26/2014	15:00:00	0.00015378937007874016
NARR_3HR	02/26/2014	18:00:00	0.0006151574803149606
NARR_3HR	02/26/2014	21:00:00	0.00015378937007874016
NARR_3HR	02/27/2014	00:00:00	0.00015378937007874016
NARR_3HR	02/27/2014	03:00:00	0.0003075787401574803
NARR_3HR	02/27/2014	06:00:00	0.0003075787401574803
NARR_3HR	02/27/2014	09:00:00	0.0006151574803149606
NARR_3HR	02/27/2014	12:00:00	0.00015378937007874016
NARR_3HR	02/27/2014	15:00:00	0.0006151574803149606
NARR_3HR	02/27/2014	18:00:00	0.0006151574803149606
NARR_3HR	02/27/2014	21:00:00	0.0006151574803149606
NARR_3HR	02/28/2014	00:00:00	0.0
NARR_3HR	02/28/2014	03:00:00	0.0
NARR_3HR	02/28/2014	06:00:00	0.00015378937007874016
NARR_3HR	02/28/2014	09:00:00	0.0
NARR_3HR	02/28/2014	12:00:00	0.00015378937007874016
NARR_3HR	02/28/2014	15:00:00	0.0
NARR_3HR	02/28/2014	18:00:00	0.000922736220472441
NARR_3HR	02/28/2014	21:00:00	0.0007689468503937008
NARR_3HR	03/01/2014	00:00:00	0.000922736220472441
NARR_3HR	03/01/2014	03:00:00	0.000922736220472441
NARR_3HR	03/01/2014	06:00:00	0.0007527663306457791
NARR_3HR	03/01/2014	09:00:00	0.020453986220472443
NARR_3HR	03/01/2014	12:00:00	0.0
NARR_3HR	03/01/2014	15:00:00	0.00015378937007874016
NARR_3HR	03/01/2014	18:00:00	0.0023068405511811026
NARR_3HR	03/01/2014	21:00:00	0.00938115157480315
NARR_3HR	03/02/2014	00:00:00	0.03860113188976378
NARR_3HR	03/02/2014	03:00:00	0.07304995078740158
NARR_3HR	03/02/2014	06:00:00	0.062130905511811024
NARR_3HR	03/02/2014	09:00:00	0.02568282480314961
NARR_3HR	03/02/2014	12:00:00	0.004613681102362205
NARR_3HR	03/02/2014	15:00:00	0.0003075787401574803
NARR_3HR	03/02/2014	18:00:00	0.0006151574803149606
NARR_3HR	03/02/2014	21:00:00	0.0007689468503937008
NARR_3HR	03/03/2014	00:00:00	0.0
NARR_3HR	03/03/2014	03:00:00	0.0
NARR_3HR	03/03/2014	06:00:00	0.00015378937007874016
NARR_3HR	03/03/2014	09:00:00	0.00015378937007874016
NARR_3HR	03/03/2014	12:00:00	0.0004613681102362205
NARR_3HR	03/03/2014	15:00:00	0.005228838582677166
NARR_3HR	03/03/2014	18:00:00	0.00845841535433071
NARR_3HR	03/03/2014	21:00:00	0.001999261811023622
NARR_3HR	03/04/2014	00:00:00	0.0
NARR_3HR	03/04/2014	03:00:00	0.0004613681102362205
NARR_3HR	03/04/2014	06:00:00	0.0006151574803149606
NARR_3HR	03/04/2014	09:00:00	0.0016916830708661418
NARR_3HR	03/04/2014	12:00:00	0.0
NARR_3HR	03/04/2014	15:00:00	0.0
NARR_3HR	03/04/2014	18:00:00	0.004306102362204725
NARR_3HR	03/04/2014	21:00:00	0.004152312992125985
NARR_3HR	03/05/2014	00:00:00	0.00015378937007874016
NARR_3HR	03/05/2014	03:00:00	0.0003075787401574803
NARR_3HR	03/05/2014	06:00:00	0.004921259842519685
NARR_3HR	03/05/2014	09:00:00	0.06859005905511811
NARR_3HR	03/05/2014	12:00:00	0.023375984251968504
NARR_3HR	03/05/2014	15:00:00	0.0032295767716535436
NARR_3HR	03/05/2014	18:00:00	0.0004613681102362205
NARR_3HR	03/05/2014	21:00:00	0.0012303149606299212
NARR_3HR	03/06/2014	00:00:00	0.0004613681102362205
NARR_3HR	03/06/2014	03:00:00	0.0003075787401574803
NARR_3HR	03/06/2014	06:00:00	0.0004613681102362205
NARR_3HR	03/06/2014	09:00:00	0.0
NARR_3HR	03/06/2014	12:00:00	0.002614419291338583
NARR_3HR	03/06/2014	15:00:00	0.004613681102362205
NARR_3HR	03/06/2014	18:00:00	0.0172244094488189
NARR_3HR	03/06/2014	21:00:00	0.0006151574803149606
NARR_3HR	03/07/2014	00:00:00	0.0
NARR_3HR	03/07/2014	03:00:00	0.0
NARR_3HR	03/07/2014	06:00:00	0.0
NARR_3HR	03/07/2014	09:00:00	0.0
NARR_3HR	03/07/2014	12:00:00	0.0
NARR_3HR	03/07/2014	15:00:00	0.0004613681102362205
NARR_3HR	03/07/2014	18:00:00	0.0016916830708661418
NARR_3HR	03/07/2014	21:00:00	0.0012303149606299212
NARR_3HR	03/08/2014	00:00:00	0.0
NARR_3HR	03/08/2014	03:00:00	0.0
NARR_3HR	03/08/2014	06:00:00	0.00015378937007874016
NARR_3HR	03/08/2014	09:00:00	0.013225885826771654
NARR_3HR	03/08/2014	12:00:00	0.0
NARR_3HR	03/08/2014	15:00:00	0.001999261811023622
NARR_3HR	03/08/2014	18:00:00	0.004767470472440945
NARR_3HR	03/08/2014	21:00:00	0.00015378937007874016
NARR_3HR	03/09/2014	00:00:00	0.0
NARR_3HR	03/09/2014	03:00:00	0.0
NARR_3HR	03/09/2014	06:00:00	0.0
NARR_3HR	03/09/2014	09:00:00	0.00011135683776297439
NARR_3HR	03/09/2014	12:00:00	0.0
NARR_3HR	03/09/2014	15:00:00	0.0006151574803149606
NARR_3HR	03/09/2014	18:00:00	0.0003075787401574803
NARR_3HR	03/09/2014	21:00:00	0.0006151574803149606
NARR_3HR	03/10/2014	00:00:00	0.0007689468503937008
NARR_3HR	03/10/2014	03:00:00	0.00015378937007874016
NARR_3HR	03/10/2014	06:00:00	0.00015378937007874016
NARR_3HR	03/10/2014	09:00:00	0.0
NARR_3HR	03/10/2014	12:00:00	0.0
NARR_3HR	03/10/2014	15:00:00	0.0
NARR_3HR	03/10/2014	18:00:00	0.0
NARR_3HR	03/10/2014	21:00:00	0.0
NARR_3HR	03/11/2014	00:00:00	0.0
NARR_3HR	03/11/2014	03:00:00	0.0
NARR_3HR	03/11/2014	06:00:00	0.0
NARR_3HR	03/11/2014	09:00:00	0.00015378937007874016
NARR_3HR	03/11/2014	12:00:00	0.0003075787401574803
NARR_3HR	03/11/2014	15:00:00	0.0004613681102362205
NARR_3HR	03/11/2014	18:00:00	0.00015378937007874016
NARR_3HR	03/11/2014	21:00:00	0.0004613681102362205
NARR_3HR	03/12/2014	00:00:00	0.0053826279527559055
NARR_3HR	03/12/2014	03:00:00	0.06659079724409449
NARR_3HR	03/12/2014	06:00:00	0.12072465551181102
NARR_3HR	03/12/2014	09:00:00	0.1377952755905512
NARR_3HR	03/12/2014	12:00:00	0.0004613681102362205
NARR_3HR	03/12/2014	15:00:00	0.01094049356115146
NARR_3HR	03/12/2014	18:00:00	0.014302411417322835
NARR_3HR	03/12/2014	21:00:00	0.003537155511811024
NARR_3HR	03/13/2014	00:00:00	0.0
NARR_3HR	03/13/2014	03:00:00	0.0
NARR_3HR	03/13/2014	06:00:00	0.0
NARR_3HR	03/13/2014	09:00:00	0.0
NARR_3HR	03/13/2014	12:00:00	0.0
NARR_3HR	03/13/2014	15:00:00	0.0
NARR_3HR	03/13/2014	18:00:00	0.0
NARR_3HR	03/13/2014	21:00:00	0.00015378937007874016
NARR_3HR	03/14/2014	00:00:00	0.0
NARR_3HR	03/14/2014	03:00:00	0.0
NARR_3HR	03/14/2014	06:00:00	0.0
NARR_3HR	03/14/2014	09:00:00	0.0
NARR_3HR	03/14/2014	12:00:00	0.027066929133858268
NARR_3HR	03/14/2014	15:00:00	0.09396530511811024
NARR_3HR	03/14/2014	18:00:00	0.0
NARR_3HR	03/14/2014	21:00:00	0.0
NARR_3HR	03/15/2014	00:00:00	0.0
NARR_3HR	03/15/2014	03:00:00	0.0
NARR_3HR	03/15/2014	06:00:00	0.0
NARR_3HR	03/15/2014	09:00:00	0.0
NARR_3HR	03/15/2014	12:00:00	0.0
NARR_3HR	03/15/2014	15:00:00	0.0003993477467007525
NARR_3HR	03/15/2014	18:00:00	0.0006151574803149606
NARR_3HR	03/15/2014	21:00:00	0.0004613681102362205
NARR_3HR	03/16/2014	00:00:00	0.0003075787401574803
NARR_3HR	03/16/2014	03:00:00	0.0015378937007874017