[TITLE]
;; No Green Infrastructure
;; 260810146022 Michigan, Kent County
;; Tract: 0146	Block Group: 022

[OPTIONS]
;;Option		Value
FLOW_UNITS		CFS
INFILTRATION		GREEN_AMPT
FLOW_ROUTING		KINWAVE
LINK_OFFSETS		DEPTH
MIN_SLOPE		0
ALLOW_PONDING		NO
SKIP_STEADY_STATE	NO

START_DATE		01/01/2014
START_TIME		00:00:00
REPORT_START_DATE	01/01/2014
REPORT_START_TIME	00:00:00
END_DATE		12/31/2014
END_TIME		23:59:59
SWEEP_START		01/01
SWEEP_END		12/31
DRY_DAYS		0
REPORT_STEP		01:00:00
WET_STEP		00:06:00
DRY_STEP		00:06:00
ROUTING_STEP		00:01:00

INERTIAL_DAMPING	PARTIAL
NORMAL_FLOW_LIMITED	BOTH
FORCE_MAIN_EQUATION	H-W
VARIABLE_STEP		0.75
LENGTHENING_STEP	0
MIN_SURFAREA		12.557
MAX_TRIALS		8
HEAD_TOLERANCE		0.005
SYS_FLOW_TOL		5
LAT_FLOW_TOL		5
MINIMUM_STEP		0.5
THREADS			1

[EVAPORATION]
;;DATA	Source	Parameters
;;------------------------
MONTHLY	0.019799577805477385	0.026355705075550077	0.04574202300521135	0.10287082963159086	0.16413851462697981	0.20637324356145859	0.19424163614234924	0.14793807606749534	0.09898595635879039	0.05482952101296186	0.02629557475104332	0.016612810231748223	
DRY_ONLY	YES

[RAINGAGES]
;;Name	Format	Interval	SCF	Source
;;--------------------------------------------
RainGage2	VOLUME	03:00:00	1	TIMESERIES NARR_3HR

[SUBCATCHMENTS]
;;Name	Rain Gage	Outlet	Area	%Imperv	Width	%Slope	CurbLen	SnowPack
;;------------------------------------------------------------------------------
Subcatch1	RainGage2	Outfall1	1790.94290849807	24.7414628088911	520089.820627839	2.90583610534668	0
Subcatch2	RainGage2	Outfall1	0	100	0	0	0
Subcatch3	Raingage2	Outfall1	0.000	100	0	0	0
Subcatch4	RainGage2	Cisterns	0.000	100	0	0	0

[SUBAREAS]
;;Subcatch	N-Imperv	N-Perv	S-Imperv	S-Perv	PctZero	RouteTo	PctRouted
;;---------------------------------------------------------------------------------------
Subcatch1	0.01	.291407111872316	0.05	.252780266542586	0	OUTLET
Subcatch2	0	0	0	0	0	OUTLET
Subcatch3	0	0	0	6	0	OUTLET
Subcatch4	0	0	0	0	0	OUTLET

[INFILTRATION]
;;Subcatchment	Suction	Ksat	IMD
;;------------------------------------------------------
Subcatch1	2.98613434177458	.684687742465479	.414762020734019
Subcatch2	2.98613434177458	.684687742465479	.414762020734019
Subcatch3	2.98613434177458	.684687742465479	.414762020734019
Subcatch4	2.98613434177458	.684687742465479	.414762020734019

[LID_CONTROLS]
;;Name	Type/Layer	Parameters
;;--------------------------------------------
RainGarden	BC
RainGarden	SURFACE	6	0	0	0	0
RainGarden	SOIL	12	0.45	0.1	0.05	10	10	1.6
RainGarden	STORAGE	0	0	0.4	0
RainGarden	DRAIN	0	0.5	6	6

GreenRoof	BC
GreenRoof	SURFACE	0	0	0	0	0
GreenRoof	SOIL	4	0.45	0.1	0.05	10	10	1.6
GreenRoof	STORAGE	3	0.75	0	0
GreenRoof	DRAIN	10	0.5	0	0

StreetPlanter	BC
StreetPlanter	SURFACE	6	0	0	0	0
StreetPlanter	SOIL	18	0.45	0.1	0.05	10	10	1.6
StreetPlanter	STORAGE	12	0.75	0.108	0

PorousPavement	PP
PorousPavement	SURFACE	0.05	0	0.01	3	0
PorousPavement	PAVEMENT	6	0.12	0	400	0
PorousPavement	STORAGE	18	0.75	0.108	0

[LID_USAGE]
;;Subcatchment	LID	Process	Number	Area	Width	InitSat	FromImp	ToPerv	RptFile	DrainTo

[JUNCTIONS]
;;Name	Elevation	MaxDepth	InitDepth	SurDepth	Aponded
;;---------------------------------------------------------
Cisterns	0	0	0	0	0

[OUTFALLS]
;;Name	Elevation	Type	Stage	Data	Gated	Routed	To
;;----------------------------------------------------------------------------
Outfall1	0	FREE	NO

[STORAGE]

[CONDUITS]

[XSECTIONS]

[TIMESERIES]
;;Name	Date	Time	Value
;;---------------------------
NARR_3HR	01/01/2014	00:00:00	0.011072834645669292
NARR_3HR	01/01/2014	03:00:00	0.0172244094488189
NARR_3HR	01/01/2014	06:00:00	0.013841043307086616
NARR_3HR	01/01/2014	09:00:00	0.007997047244094488
NARR_3HR	01/01/2014	12:00:00	0.0006151574803149606
NARR_3HR	01/01/2014	15:00:00	0.0003075787401574803
NARR_3HR	01/01/2014	18:00:00	0.022760826771653545
NARR_3HR	01/01/2014	21:00:00	0.02675935039370079
NARR_3HR	01/02/2014	00:00:00	0.002768208661417323
NARR_3HR	01/02/2014	03:00:00	0.017839566929133858
NARR_3HR	01/02/2014	06:00:00	0.010457677165354331
NARR_3HR	01/02/2014	09:00:00	0.00984251968503937
NARR_3HR	01/02/2014	12:00:00	0.0
NARR_3HR	01/02/2014	15:00:00	0.0003075787401574803
NARR_3HR	01/02/2014	18:00:00	0.0003075787401574803
NARR_3HR	01/02/2014	21:00:00	0.0003075787401574803
NARR_3HR	01/03/2014	00:00:00	0.0
NARR_3HR	01/03/2014	03:00:00	0.0
NARR_3HR	01/03/2014	06:00:00	0.0006151574803149606
NARR_3HR	01/03/2014	09:00:00	0.0003075787401574803
NARR_3HR	01/03/2014	12:00:00	0.0003075787401574803
NARR_3HR	01/03/2014	15:00:00	0.0006151574803149606
NARR_3HR	01/03/2014	18:00:00	0.0
NARR_3HR	01/03/2014	21:00:00	0.0003075787401574803
NARR_3HR	01/04/2014	00:00:00	0.0003075787401574803
NARR_3HR	01/04/2014	03:00:00	0.0
NARR_3HR	01/04/2014	06:00:00	0.0
NARR_3HR	01/04/2014	09:00:00	0.0
NARR_3HR	01/04/2014	12:00:00	0.0
NARR_3HR	01/04/2014	15:00:00	0.0006151574803149606
NARR_3HR	01/04/2014	18:00:00	0.008919783464566929
NARR_3HR	01/04/2014	21:00:00	0.01630167322834646
NARR_3HR	01/05/2014	00:00:00	0.021838090551181105
NARR_3HR	01/05/2014	03:00:00	0.0578248031496063
NARR_3HR	01/05/2014	06:00:00	0.06489911417322836
NARR_3HR	01/05/2014	09:00:00	0.07443405511811024
NARR_3HR	01/05/2014	12:00:00	0.008359147807744544
NARR_3HR	01/05/2014	15:00:00	0.04675196850393701
NARR_3HR	01/05/2014	18:00:00	0.07443405511811024
NARR_3HR	01/05/2014	21:00:00	0.05659448818897638
NARR_3HR	01/06/2014	00:00:00	0.05013533464566929
NARR_3HR	01/06/2014	03:00:00	0.03414124015748032
NARR_3HR	01/06/2014	06:00:00	0.03198818897637795
NARR_3HR	01/06/2014	09:00:00	0.035063976377952756
NARR_3HR	01/06/2014	12:00:00	0.022453248031496065
NARR_3HR	01/06/2014	15:00:00	0.001845472440944882
NARR_3HR	01/06/2014	18:00:00	0.01845472440944882
NARR_3HR	01/06/2014	21:00:00	0.01691683070866142
NARR_3HR	01/07/2014	00:00:00	0.023068405511811024
NARR_3HR	01/07/2014	03:00:00	0.034473158243134266
NARR_3HR	01/07/2014	06:00:00	0.029835137795275593
NARR_3HR	01/07/2014	09:00:00	0.020300196850393703
NARR_3HR	01/07/2014	12:00:00	0.0
NARR_3HR	01/07/2014	15:00:00	0.0
NARR_3HR	01/07/2014	18:00:00	0.0
NARR_3HR	01/07/2014	21:00:00	0.0012303149606299212
NARR_3HR	01/08/2014	00:00:00	0.006151574803149607
NARR_3HR	01/08/2014	03:00:00	0.012303149606299213
NARR_3HR	01/08/2014	06:00:00	0.00922736220472441
NARR_3HR	01/08/2014	09:00:00	0.0003075787401574803
NARR_3HR	01/08/2014	12:00:00	0.0003075787401574803
NARR_3HR	01/08/2014	15:00:00	0.0003075787401574803
NARR_3HR	01/08/2014	18:00:00	0.0006151574803149606
NARR_3HR	01/08/2014	21:00:00	0.0003075787401574803
NARR_3HR	01/09/2014	00:00:00	0.0
NARR_3HR	01/09/2014	03:00:00	0.0
NARR_3HR	01/09/2014	06:00:00	0.0
NARR_3HR	01/09/2014	09:00:00	0.0
NARR_3HR	01/09/2014	12:00:00	0.0003075787401574803
NARR_3HR	01/09/2014	15:00:00	0.0
NARR_3HR	01/09/2014	18:00:00	0.0003075787401574803
NARR_3HR	01/09/2014	21:00:00	0.0
NARR_3HR	01/10/2014	00:00:00	0.0003075787401574803
NARR_3HR	01/10/2014	03:00:00	0.0012303149606299212
NARR_3HR	01/10/2014	06:00:00	0.004306102362204725
NARR_3HR	01/10/2014	09:00:00	0.0012303149606299212
NARR_3HR	01/10/2014	12:00:00	0.0003075787401574803
NARR_3HR	01/10/2014	15:00:00	0.004306102362204725
NARR_3HR	01/10/2014	18:00:00	0.0003075787401574803
NARR_3HR	01/10/2014	21:00:00	0.2224215747803215
NARR_3HR	01/11/2014	00:00:00	0.1811638779527559
NARR_3HR	01/11/2014	03:00:00	0.25593400940181704
NARR_3HR	01/11/2014	06:00:00	0.04675196850393701
NARR_3HR	01/11/2014	09:00:00	0.15163631889763782
NARR_3HR	01/11/2014	12:00:00	0.04459891732283465
NARR_3HR	01/11/2014	15:00:00	0.004613681102362205
NARR_3HR	01/11/2014	18:00:00	0.0003075787401574803
NARR_3HR	01/11/2014	21:00:00	0.0021530511811023623
NARR_3HR	01/12/2014	00:00:00	0.003690944881889764
NARR_3HR	01/12/2014	03:00:00	0.005228838582677166
NARR_3HR	01/12/2014	06:00:00	0.0024606299212598425
NARR_3HR	01/12/2014	09:00:00	0.0
NARR_3HR	01/12/2014	12:00:00	0.0003075787401574803
NARR_3HR	01/12/2014	15:00:00	0.0
NARR_3HR	01/12/2014	18:00:00	0.0
NARR_3HR	01/12/2014	21:00:00	0.0003075787401574803
NARR_3HR	01/13/2014	00:00:00	0.0
NARR_3HR	01/13/2014	03:00:00	0.0
NARR_3HR	01/13/2014	06:00:00	0.0
NARR_3HR	01/13/2014	09:00:00	0.0
NARR_3HR	01/13/2014	12:00:00	0.0
NARR_3HR	01/13/2014	15:00:00	0.004306102362204725
NARR_3HR	01/13/2014	18:00:00	0.0
NARR_3HR	01/13/2014	21:00:00	0.0
NARR_3HR	01/14/2014	00:00:00	0.0
NARR_3HR	01/14/2014	03:00:00	0.0003075787401574803
NARR_3HR	01/14/2014	06:00:00	0.0
NARR_3HR	01/14/2014	09:00:00	0.0
NARR_3HR	01/14/2014	12:00:00	0.0
NARR_3HR	01/14/2014	15:00:00	7.380108077695051e-05
NARR_3HR	01/14/2014	18:00:00	0.004306102362204725
NARR_3HR	01/14/2014	21:00:00	0.006151574803149607
NARR_3HR	01/15/2014	00:00:00	0.00013758962805287577
NARR_3HR	01/15/2014	03:00:00	0.007074311023622048
NARR_3HR	01/15/2014	06:00:00	0.02583661417322835
NARR_3HR	01/15/2014	09:00:00	0.014148622047244095
NARR_3HR	01/15/2014	12:00:00	0.0
NARR_3HR	01/15/2014	15:00:00	0.0021530511811023623
NARR_3HR	01/15/2014	18:00:00	0.0
NARR_3HR	01/15/2014	21:00:00	0.0006151574803149606
NARR_3HR	01/16/2014	00:00:00	0.0
NARR_3HR	01/16/2014	03:00:00	0.0
NARR_3HR	01/16/2014	06:00:00	0.0003075787401574803
NARR_3HR	01/16/2014	09:00:00	0.014456200787401575
NARR_3HR	01/16/2014	12:00:00	0.000922736220472441
NARR_3HR	01/16/2014	15:00:00	0.0
NARR_3HR	01/16/2014	18:00:00	0.0012303149606299212
NARR_3HR	01/16/2014	21:00:00	0.007381889763779528
NARR_3HR	01/17/2014	00:00:00	0.01906988188976378
NARR_3HR	01/17/2014	03:00:00	0.048597440944881894
NARR_3HR	01/17/2014	06:00:00	0.007074311023622048
NARR_3HR	01/17/2014	09:00:00	0.003998523622047244
NARR_3HR	01/17/2014	12:00:00	0.0
NARR_3HR	01/17/2014	15:00:00	0.0
NARR_3HR	01/17/2014	18:00:00	0.0
NARR_3HR	01/17/2014	21:00:00	0.0012303149606299212
NARR_3HR	01/18/2014	00:00:00	0.0003075787401574803
NARR_3HR	01/18/2014	03:00:00	0.00953494094488189
NARR_3HR	01/18/2014	06:00:00	0.00953494094488189
NARR_3HR	01/18/2014	09:00:00	0.00861220472440945
NARR_3HR	01/18/2014	12:00:00	0.004613681102362205
NARR_3HR	01/18/2014	15:00:00	0.0003075787401574803
NARR_3HR	01/18/2014	18:00:00	0.0003075787401574803
NARR_3HR	01/18/2014	21:00:00	0.0012303149606299212
NARR_3HR	01/19/2014	00:00:00	0.00036735600960536267
NARR_3HR	01/19/2014	03:00:00	0.0
NARR_3HR	01/19/2014	06:00:00	0.004613681102362205
NARR_3HR	01/19/2014	09:00:00	0.0
NARR_3HR	01/19/2014	12:00:00	0.0003075787401574803
NARR_3HR	01/19/2014	15:00:00	0.0
NARR_3HR	01/19/2014	18:00:00	0.0
NARR_3HR	01/19/2014	21:00:00	0.0003075787401574803
NARR_3HR	01/20/2014	00:00:00	0.0006151574803149606
NARR_3HR	01/20/2014	03:00:00	0.003690944881889764
NARR_3HR	01/20/2014	06:00:00	0.0006151574803149606
NARR_3HR	01/20/2014	09:00:00	0.0
NARR_3HR	01/20/2014	12:00:00	0.0
NARR_3HR	01/20/2014	15:00:00	0.001845472440944882
NARR_3HR	01/20/2014	18:00:00	0.0
NARR_3HR	01/20/2014	21:00:00	0.0003075787401574803
NARR_3HR	01/21/2014	00:00:00	0.0003075787401574803
NARR_3HR	01/21/2014	03:00:00	0.001845472440944882
NARR_3HR	01/21/2014	06:00:00	0.0006151574803149606
NARR_3HR	01/21/2014	09:00:00	0.0003075787401574803
NARR_3HR	01/21/2014	12:00:00	0.0006151574803149606
NARR_3HR	01/21/2014	15:00:00	0.0006151574803149606
NARR_3HR	01/21/2014	18:00:00	0.0003075787401574803
NARR_3HR	01/21/2014	21:00:00	0.000922736220472441
NARR_3HR	01/22/2014	00:00:00	0.0003075787401574803
NARR_3HR	01/22/2014	03:00:00	0.0006670336143707666
NARR_3HR	01/22/2014	06:00:00	0.01691683070866142
NARR_3HR	01/22/2014	09:00:00	0.0021530511811023623
NARR_3HR	01/22/2014	12:00:00	0.002768208661417323
NARR_3HR	01/22/2014	15:00:00	0.015686515748031496
NARR_3HR	01/22/2014	18:00:00	0.0024606299212598425
NARR_3HR	01/22/2014	21:00:00	0.01937746062992126
NARR_3HR	01/23/2014	00:00:00	0.024606299212598427
NARR_3HR	01/23/2014	03:00:00	0.022453248031496065
NARR_3HR	01/23/2014	06:00:00	0.01968503937007874
NARR_3HR	01/23/2014	09:00:00	0.012918307086614175
NARR_3HR	01/23/2014	12:00:00	0.0003075787401574803
NARR_3HR	01/23/2014	15:00:00	0.0021530511811023623
NARR_3HR	01/23/2014	18:00:00	0.0003075787401574803
NARR_3HR	01/23/2014	21:00:00	0.0021530511811023623
NARR_3HR	01/24/2014	00:00:00	0.0359867125984252
NARR_3HR	01/24/2014	03:00:00	0.00830462598425197
NARR_3HR	01/24/2014	06:00:00	0.0003075787401574803
NARR_3HR	01/24/2014	09:00:00	0.0003075787401574803
NARR_3HR	01/24/2014	12:00:00	0.0003075787401574803
NARR_3HR	01/24/2014	15:00:00	0.002768208661417323
NARR_3HR	01/24/2014	18:00:00	0.007381889763779528
NARR_3HR	01/24/2014	21:00:00	0.02829724409448819
NARR_3HR	01/25/2014	00:00:00	0.03260334645669292
NARR_3HR	01/25/2014	03:00:00	0.10303887795275592
NARR_3HR	01/25/2014	06:00:00	0.08243110236220473
NARR_3HR	01/25/2014	09:00:00	0.047982283464566934
NARR_3HR	01/25/2014	12:00:00	0.015994094488188976
NARR_3HR	01/25/2014	15:00:00	0.0003075787401574803
NARR_3HR	01/25/2014	18:00:00	0.0
NARR_3HR	01/25/2014	21:00:00	0.005228838582677166
NARR_3HR	01/26/2014	00:00:00	0.013533464566929134
NARR_3HR	01/26/2014	03:00:00	0.017839566929133858
NARR_3HR	01/26/2014	06:00:00	0.0003075787401574803
NARR_3HR	01/26/2014	09:00:00	0.01968503937007874
NARR_3HR	01/26/2014	12:00:00	0.024298720472440947
NARR_3HR	01/26/2014	15:00:00	0.0012303149606299212
NARR_3HR	01/26/2014	18:00:00	0.004613681102362205
NARR_3HR	01/26/2014	21:00:00	0.00953494094488189
NARR_3HR	01/27/2014	00:00:00	0.0578248031496063
NARR_3HR	01/27/2014	03:00:00	0.09165846456692914
NARR_3HR	01/27/2014	06:00:00	0.03690944881889764
NARR_3HR	01/27/2014	09:00:00	0.012623834328388605
NARR_3HR	01/27/2014	12:00:00	0.01814714566929134
NARR_3HR	01/27/2014	15:00:00	0.010786677204717801
NARR_3HR	01/27/2014	18:00:00	0.013225885826771654
NARR_3HR	01/27/2014	21:00:00	0.0024606299212598425
NARR_3HR	01/28/2014	00:00:00	0.0021530511811023623
NARR_3HR	01/28/2014	03:00:00	0.011687992125984252
NARR_3HR	01/28/2014	06:00:00	0.006766732283464567
NARR_3HR	01/28/2014	09:00:00	0.0024606299212598425
NARR_3HR	01/28/2014	12:00:00	0.0003075787401574803
NARR_3HR	01/28/2014	15:00:00	0.04398375984251969
NARR_3HR	01/28/2014	18:00:00	0.0003075787401574803
NARR_3HR	01/28/2014	21:00:00	0.001845472440944882
NARR_3HR	01/29/2014	00:00:00	0.0003075787401574803
NARR_3HR	01/29/2014	03:00:00	0.0024606299212598425
NARR_3HR	01/29/2014	06:00:00	0.0003075787401574803
NARR_3HR	01/29/2014	09:00:00	0.0003075787401574803
NARR_3HR	01/29/2014	12:00:00	0.0003075787401574803
NARR_3HR	01/29/2014	15:00:00	0.0003075787401574803
NARR_3HR	01/29/2014	18:00:00	0.0006151574803149606
NARR_3HR	01/29/2014	21:00:00	0.0
NARR_3HR	01/30/2014	00:00:00	0.0
NARR_3HR	01/30/2014	03:00:00	0.0
NARR_3HR	01/30/2014	06:00:00	0.0
NARR_3HR	01/30/2014	09:00:00	5.568869001283421e-05
NARR_3HR	01/30/2014	12:00:00	0.0
NARR_3HR	01/30/2014	15:00:00	0.0003075787401574803
NARR_3HR	01/30/2014	18:00:00	0.0003075787401574803
NARR_3HR	01/30/2014	21:00:00	0.022145669291338585
NARR_3HR	01/31/2014	00:00:00	0.008919783464566929
NARR_3HR	01/31/2014	03:00:00	0.01691683070866142
NARR_3HR	01/31/2014	06:00:00	0.00922736220472441
NARR_3HR	01/31/2014	09:00:00	0.0
NARR_3HR	01/31/2014	12:00:00	0.00034043800056450014
NARR_3HR	01/31/2014	15:00:00	0.0006531016886468947
NARR_3HR	01/31/2014	18:00:00	0.0003075787401574803
NARR_3HR	01/31/2014	21:00:00	0.001845472440944882
NARR_3HR	02/01/2014	00:00:00	0.0006151574803149606
NARR_3HR	02/01/2014	03:00:00	0.004921259842519685
NARR_3HR	02/01/2014	06:00:00	0.01968503937007874
NARR_3HR	02/01/2014	09:00:00	0.006766732283464567
NARR_3HR	02/01/2014	12:00:00	0.13072096456692914
NARR_3HR	02/01/2014	15:00:00	0.04982775590551181
NARR_3HR	02/01/2014	18:00:00	0.047674704724409454
NARR_3HR	02/01/2014	21:00:00	0.022760826771653545
NARR_3HR	02/02/2014	00:00:00	0.0
NARR_3HR	02/02/2014	03:00:00	0.0
NARR_3HR	02/02/2014	06:00:00	0.000922736220472441
NARR_3HR	02/02/2014	09:00:00	0.0003075787401574803
NARR_3HR	02/02/2014	12:00:00	0.0
NARR_3HR	02/02/2014	15:00:00	0.0
NARR_3HR	02/02/2014	18:00:00	0.0
NARR_3HR	02/02/2014	21:00:00	0.0
NARR_3HR	02/03/2014	00:00:00	0.0
NARR_3HR	02/03/2014	03:00:00	0.0
NARR_3HR	02/03/2014	06:00:00	0.0
NARR_3HR	02/03/2014	09:00:00	0.0
NARR_3HR	02/03/2014	12:00:00	0.0
NARR_3HR	02/03/2014	15:00:00	0.0
NARR_3HR	02/03/2014	18:00:00	4.2286270672059434e-05
NARR_3HR	02/03/2014	21:00:00	0.0
NARR_3HR	02/04/2014	00:00:00	0.0
NARR_3HR	02/04/2014	03:00:00	0.0
NARR_3HR	02/04/2014	06:00:00	0.0
NARR_3HR	02/04/2014	09:00:00	0.0
NARR_3HR	02/04/2014	12:00:00	0.0
NARR_3HR	02/04/2014	15:00:00	8.114884006167492e-05
NARR_3HR	02/04/2014	18:00:00	0.0006151574803149606
NARR_3HR	02/04/2014	21:00:00	0.006459153543307087
NARR_3HR	02/05/2014	00:00:00	0.0
NARR_3HR	02/05/2014	03:00:00	0.01630167322834646
NARR_3HR	02/05/2014	06:00:00	0.06428395669291338
NARR_3HR	02/05/2014	09:00:00	0.08642962598425197
NARR_3HR	02/05/2014	12:00:00	0.0719734251968504
NARR_3HR	02/05/2014	15:00:00	0.00922736220472441
NARR_3HR	02/05/2014	18:00:00	0.0
NARR_3HR	02/05/2014	21:00:00	0.0033833661417322835
NARR_3HR	02/06/2014	00:00:00	0.0003075787401574803
NARR_3HR	02/06/2014	03:00:00	0.0003075787401574803
NARR_3HR	02/06/2014	06:00:00	0.0004256511928410981
NARR_3HR	02/06/2014	09:00:00	0.004613681102362205
NARR_3HR	02/06/2014	12:00:00	0.010765255905511811
NARR_3HR	02/06/2014	15:00:00	0.02675935039370079
NARR_3HR	02/06/2014	18:00:00	0.0
NARR_3HR	02/06/2014	21:00:00	0.0015378937007874017
NARR_3HR	02/07/2014	00:00:00	0.0015378937007874017
NARR_3HR	02/07/2014	03:00:00	0.0021639636417073527
NARR_3HR	02/07/2014	06:00:00	0.0021530511811023623
NARR_3HR	02/07/2014	09:00:00	0.0006151574803149606
NARR_3HR	02/07/2014	12:00:00	0.0001136738509966398
NARR_3HR	02/07/2014	15:00:00	0.002768208661417323
NARR_3HR	02/07/2014	18:00:00	0.0003075787401574803
NARR_3HR	02/07/2014	21:00:00	0.0003075787401574803
NARR_3HR	02/08/2014	00:00:00	0.0003075787401574803
NARR_3HR	02/08/2014	03:00:00	0.0003075787401574803
NARR_3HR	02/08/2014	06:00:00	0.0
NARR_3HR	02/08/2014	09:00:00	0.0
NARR_3HR	02/08/2014	12:00:00	0.003690944881889764
NARR_3HR	02/08/2014	15:00:00	0.00984251968503937
NARR_3HR	02/08/2014	18:00:00	0.003690944881889764
NARR_3HR	02/08/2014	21:00:00	0.014763779527559057
NARR_3HR	02/09/2014	00:00:00	0.00984251968503937
NARR_3HR	02/09/2014	03:00:00	0.005228838582677166
NARR_3HR	02/09/2014	06:00:00	0.005228838582677166
NARR_3HR	02/09/2014	09:00:00	0.00953494094488189
NARR_3HR	02/09/2014	12:00:00	0.01937746062992126
NARR_3HR	02/09/2014	15:00:00	0.0006151574803149606
NARR_3HR	02/09/2014	18:00:00	0.0
NARR_3HR	02/09/2014	21:00:00	0.0012303149606299212
NARR_3HR	02/10/2014	00:00:00	0.0
NARR_3HR	02/10/2014	03:00:00	0.002768208661417323
NARR_3HR	02/10/2014	06:00:00	0.0015378937007874017
NARR_3HR	02/10/2014	09:00:00	0.0003075787401574803
NARR_3HR	02/10/2014	12:00:00	0.003998523622047244
NARR_3HR	02/10/2014	15:00:00	0.0003075787401574803
NARR_3HR	02/10/2014	18:00:00	0.0
NARR_3HR	02/10/2014	21:00:00	0.0003075787401574803
NARR_3HR	02/11/2014	00:00:00	0.0003075787401574803
NARR_3HR	02/11/2014	03:00:00	0.000922736220472441
NARR_3HR	02/11/2014	06:00:00	0.0006151574803149606
NARR_3HR	02/11/2014	09:00:00	0.0006151574803149606
NARR_3HR	02/11/2014	12:00:00	0.0006151574803149606
NARR_3HR	02/11/2014	15:00:00	0.0003075787401574803
NARR_3HR	02/11/2014	18:00:00	0.00033515164496626443
NARR_3HR	02/11/2014	21:00:00	0.0003075787401574803
NARR_3HR	02/12/2014	00:00:00	0.0
NARR_3HR	02/12/2014	03:00:00	0.0
NARR_3HR	02/12/2014	06:00:00	0.0
NARR_3HR	02/12/2014	09:00:00	0.0003075787401574803
NARR_3HR	02/12/2014	12:00:00	0.0006151574803149606
NARR_3HR	02/12/2014	15:00:00	5.266695158688102e-05
NARR_3HR	02/12/2014	18:00:00	0.0003075787401574803
NARR_3HR	02/12/2014	21:00:00	0.0
NARR_3HR	02/13/2014	00:00:00	0.0
NARR_3HR	02/13/2014	03:00:00	0.0
NARR_3HR	02/13/2014	06:00:00	0.0
NARR_3HR	02/13/2014	09:00:00	0.0
NARR_3HR	02/13/2014	12:00:00	0.0
NARR_3HR	02/13/2014	15:00:00	0.0
NARR_3HR	02/13/2014	18:00:00	0.0006151574803149606
NARR_3HR	02/13/2014	21:00:00	0.0006151574803149606
NARR_3HR	02/14/2014	00:00:00	0.0
NARR_3HR	02/14/2014	03:00:00	0.006151574803149607
NARR_3HR	02/14/2014	06:00:00	0.004921259842519685
NARR_3HR	02/14/2014	09:00:00	0.0
NARR_3HR	02/14/2014	12:00:00	0.0
NARR_3HR	02/14/2014	15:00:00	0.000922736220472441
NARR_3HR	02/14/2014	18:00:00	0.0
NARR_3HR	02/14/2014	21:00:00	0.0
NARR_3HR	02/15/2014	00:00:00	0.0
NARR_3HR	02/15/2014	03:00:00	0.0003075787401574803
NARR_3HR	02/15/2014	06:00:00	0.0003075787401574803
NARR_3HR	02/15/2014	09:00:00	0.0
NARR_3HR	02/15/2014	12:00:00	0.0
NARR_3HR	02/15/2014	15:00:00	0.0
NARR_3HR	02/15/2014	18:00:00	0.0
NARR_3HR	02/15/2014	21:00:00	0.0015378937007874017
NARR_3HR	02/16/2014	00:00:00	0.0003075787401574803
NARR_3HR	02/16/2014	03:00:00	0.0006151574803149606
NARR_3HR	02/16/2014	06:00:00	0.013225885826771654
NARR_3HR	02/16/2014	09:00:00	0.021222933070866142
NARR_3HR	02/16/2014	12:00:00	0.0021530511811023623
NARR_3HR	02/16/2014	15:00:00	0.0030757874015748033
NARR_3HR	02/16/2014	18:00:00	3.404475337877048e-05
NARR_3HR	02/16/2014	21:00:00	0.0
NARR_3HR	02/17/2014	00:00:00	0.0003075787401574803
NARR_3HR	02/17/2014	03:00:00	0.0
NARR_3HR	02/17/2014	06:00:00	0.0
NARR_3HR	02/17/2014	09:00:00	0.0003075787401574803
NARR_3HR	02/17/2014	12:00:00	0.0003075787401574803
NARR_3HR	02/17/2014	15:00:00	0.0003075787401574803
NARR_3HR	02/17/2014	18:00:00	0.03168061023622047
NARR_3HR	02/17/2014	21:00:00	0.07074311023622047
NARR_3HR	02/18/2014	00:00:00	0.11595718503937008
NARR_3HR	02/18/2014	03:00:00	0.08612204724409449
NARR_3HR	02/18/2014	06:00:00	0.03198818897637795
NARR_3HR	02/18/2014	09:00:00	0.0
NARR_3HR	02/18/2014	12:00:00	0.0015378937007874017
NARR_3HR	02/18/2014	15:00:00	0.01906988188976378
NARR_3HR	02/18/2014	18:00:00	0.006151574803149607
NARR_3HR	02/18/2014	21:00:00	0.007689468503937008
NARR_3HR	02/19/2014	00:00:00	0.0003075787401574803
NARR_3HR	02/19/2014	03:00:00	0.0
NARR_3HR	02/19/2014	06:00:00	0.0006151574803149606
NARR_3HR	02/19/2014	09:00:00	0.00011764553844870076
NARR_3HR	02/19/2014	12:00:00	0.015994094488188976
NARR_3HR	02/19/2014	15:00:00	0.0
NARR_3HR	02/19/2014	18:00:00	0.0
NARR_3HR	02/19/2014	21:00:00	0.0
NARR_3HR	02/20/2014	00:00:00	0.0
NARR_3HR	02/20/2014	03:00:00	0.0
NARR_3HR	02/20/2014	06:00:00	0.0006151574803149606
NARR_3HR	02/20/2014	09:00:00	0.0
NARR_3HR	02/20/2014	12:00:00	0.11472687007874016
NARR_3HR	02/20/2014	15:00:00	0.04398375984251969
NARR_3HR	02/20/2014	18:00:00	0.1627091535433071
NARR_3HR	02/20/2014	21:00:00	0.2220718503937008
NARR_3HR	02/21/2014	00:00:00	0.008924290772498124
NARR_3HR	02/21/2014	03:00:00	0.0022706499425914346
NARR_3HR	02/21/2014	06:00:00	9.321086072018298e-07
NARR_3HR	02/21/2014	09:00:00	0.0006151574803149606
NARR_3HR	02/21/2014	12:00:00	0.015686515748031496
NARR_3HR	02/21/2014	15:00:00	0.010150098425196851
NARR_3HR	02/21/2014	18:00:00	0.0006151574803149606
NARR_3HR	02/21/2014	21:00:00	0.0
NARR_3HR	02/22/2014	00:00:00	0.0
NARR_3HR	02/22/2014	03:00:00	0.0
NARR_3HR	02/22/2014	06:00:00	0.0
NARR_3HR	02/22/2014	09:00:00	0.0
NARR_3HR	02/22/2014	12:00:00	0.0
NARR_3HR	02/22/2014	15:00:00	0.0
NARR_3HR	02/22/2014	18:00:00	0.0003075787401574803
NARR_3HR	02/22/2014	21:00:00	0.0
NARR_3HR	02/23/2014	00:00:00	3.563240170478821e-05
NARR_3HR	02/23/2014	03:00:00	0.0
NARR_3HR	02/23/2014	06:00:00	0.0
NARR_3HR	02/23/2014	09:00:00	0.0
NARR_3HR	02/23/2014	12:00:00	0.0
NARR_3HR	02/23/2014	15:00:00	0.0
NARR_3HR	02/23/2014	18:00:00	0.0
NARR_3HR	02/23/2014	21:00:00	0.0
NARR_3HR	02/24/2014	00:00:00	0.0
NARR_3HR	02/24/2014	03:00:00	0.0003075787401574803
NARR_3HR	02/24/2014	06:00:00	0.0003075787401574803
NARR_3HR	02/24/2014	09:00:00	0.0
NARR_3HR	02/24/2014	12:00:00	0.0003075787401574803
NARR_3HR	02/24/2014	15:00:00	0.0
NARR_3HR	02/24/2014	18:00:00	7.69163822887216e-05
NARR_3HR	02/24/2014	21:00:00	0.0003075787401574803
NARR_3HR	02/25/2014	00:00:00	0.0003075787401574803
NARR_3HR	02/25/2014	03:00:00	0.000922736220472441
NARR_3HR	02/25/2014	06:00:00	0.003998523622047244
NARR_3HR	02/25/2014	09:00:00	0.003998523622047244
NARR_3HR	02/25/2014	12:00:00	0.0
NARR_3HR	02/25/2014	15:00:00	0.0
NARR_3HR	02/25/2014	18:00:00	0.0
NARR_3HR	02/25/2014	21:00:00	0.0006151574803149606
NARR_3HR	02/26/2014	00:00:00	0.0
NARR_3HR	02/26/2014	03:00:00	0.006151574803149607
NARR_3HR	02/26/2014	06:00:00	0.005536417322834646
NARR_3HR	02/26/2014	09:00:00	0.004306102362204725
NARR_3HR	02/26/2014	12:00:00	0.004613681102362205
NARR_3HR	02/26/2014	15:00:00	0.0
NARR_3HR	02/26/2014	18:00:00	0.0
NARR_3HR	02/26/2014	21:00:00	0.0030757874015748033
NARR_3HR	02/27/2014	00:00:00	0.0006151574803149606
NARR_3HR	02/27/2014	03:00:00	0.025221456692913386
NARR_3HR	02/27/2014	06:00:00	0.02921998031496063
NARR_3HR	02/27/2014	09:00:00	0.01906988188976378
NARR_3HR	02/27/2014	12:00:00	0.0003075787401574803
NARR_3HR	02/27/2014	15:00:00	0.0003075787401574803
NARR_3HR	02/27/2014	18:00:00	0.0003075787401574803
NARR_3HR	02/27/2014	21:00:00	0.010765255905511811
NARR_3HR	02/28/2014	00:00:00	0.0
NARR_3HR	02/28/2014	03:00:00	0.0003075787401574803
NARR_3HR	02/28/2014	06:00:00	0.0
NARR_3HR	02/28/2014	09:00:00	0.0
NARR_3HR	02/28/2014	12:00:00	0.0
NARR_3HR	02/28/2014	15:00:00	0.0
NARR_3HR	02/28/2014	18:00:00	0.0
NARR_3HR	02/28/2014	21:00:00	0.0021530511811023623
NARR_3HR	03/01/2014	00:00:00	0.0003075787401574803
NARR_3HR	03/01/2014	03:00:00	0.0003075787401574803
NARR_3HR	03/01/2014	06:00:00	0.00013760881366457528
NARR_3HR	03/01/2014	09:00:00	0.042753444881889764
NARR_3HR	03/01/2014	12:00:00	0.012918307086614175
NARR_3HR	03/01/2014	15:00:00	0.0
NARR_3HR	03/01/2014	18:00:00	0.0
NARR_3HR	03/01/2014	21:00:00	0.015994094488188976
NARR_3HR	03/02/2014	00:00:00	0.02891240157480315
NARR_3HR	03/02/2014	03:00:00	0.04429133858267717
NARR_3HR	03/02/2014	06:00:00	0.010150098425196851
NARR_3HR	03/02/2014	09:00:00	0.004613681102362205
NARR_3HR	03/02/2014	12:00:00	0.0006151574803149606
NARR_3HR	03/02/2014	15:00:00	0.0
NARR_3HR	03/02/2014	18:00:00	0.0
NARR_3HR	03/02/2014	21:00:00	0.0003075787401574803
NARR_3HR	03/03/2014	00:00:00	0.0
NARR_3HR	03/03/2014	03:00:00	0.0
NARR_3HR	03/03/2014	06:00:00	0.0
NARR_3HR	03/03/2014	09:00:00	0.0
NARR_3HR	03/03/2014	12:00:00	0.0
NARR_3HR	03/03/2014	15:00:00	0.0
NARR_3HR	03/03/2014	18:00:00	0.0006151574803149606
NARR_3HR	03/03/2014	21:00:00	0.0
NARR_3HR	03/04/2014	00:00:00	0.0
NARR_3HR	03/04/2014	03:00:00	0.0006151574803149606
NARR_3HR	03/04/2014	06:00:00	0.0006151574803149606
NARR_3HR	03/04/2014	09:00:00	0.0006151574803149606
NARR_3HR	03/04/2014	12:00:00	0.012918307086614175
NARR_3HR	03/04/2014	15:00:00	0.0003075787401574803
NARR_3HR	03/04/2014	18:00:00	0.0
NARR_3HR	03/04/2014	21:00:00	0.0006151574803149606
NARR_3HR	03/05/2014	00:00:00	0.0
NARR_3HR	03/05/2014	03:00:00	0.0003075787401574803
NARR_3HR	03/05/2014	06:00:00	0.0003075787401574803
NARR_3HR	03/05/2014	09:00:00	0.001845472440944882
NARR_3HR	03/05/2014	12:00:00	0.0003075787401574803
NARR_3HR	03/05/2014	15:00:00	0.0003075787401574803
NARR_3HR	03/05/2014	18:00:00	0.0
NARR_3HR	03/05/2014	21:00:00	0.0
NARR_3HR	03/06/2014	00:00:00	0.0
NARR_3HR	03/06/2014	03:00:00	0.0
NARR_3HR	03/06/2014	06:00:00	0.0
NARR_3HR	03/06/2014	09:00:00	0.0003075787401574803
NARR_3HR	03/06/2014	12:00:00	0.0003075787401574803
NARR_3HR	03/06/2014	15:00:00	0.0
NARR_3HR	03/06/2014	18:00:00	0.0
NARR_3HR	03/06/2014	21:00:00	0.0
NARR_3HR	03/07/2014	00:00:00	0.0
NARR_3HR	03/07/2014	03:00:00	0.0
NARR_3HR	03/07/2014	06:00:00	0.0
NARR_3HR	03/07/2014	09:00:00	0.0
NARR_3HR	03/07/2014	12:00:00	0.0
NARR_3HR	03/07/2014	15:00:00	0.005536417322834646
NARR_3HR	03/07/2014	18:00:00	0.0015378937007874017
NARR_3HR	03/07/2014	21:00:00	0.0012303149606299212
NARR_3HR	03/08/2014	00:00:00	0.0
NARR_3HR	03/08/2014	03:00:00	0.0
NARR_3HR	03/08/2014	06:00:00	0.005536417322834646
NARR_3HR	03/08/2014	09:00:00	0.0006151574803149606
NARR_3HR	03/08/2014	12:00:00	0.0006151574803149606
NARR_3HR	03/08/2014	15:00:00	0.0003075787401574803
NARR_3HR	03/08/2014	18:00:00	0.0
NARR_3HR	03/08/2014	21:00:00	0.0
NARR_3HR	03/09/2014	00:00:00	0.0
NARR_3HR	03/09/2014	03:00:00	0.0
NARR_3HR	03/09/2014	06:00:00	0.0
NARR_3HR	03/09/2014	09:00:00	0.00011135683776297439
NARR_3HR	03/09/2014	12:00:00	0.0
NARR_3HR	03/09/2014	15:00:00	0.0015378937007874017
NARR_3HR	03/09/2014	18:00:00	0.0003075787401574803
NARR_3HR	03/09/2014	21:00:00	0.0003075787401574803
NARR_3HR	03/10/2014	00:00:00	0.0006151574803149606
NARR_3HR	03/10/2014	03:00:00	0.0003075787401574803
NARR_3HR	03/10/2014	06:00:00	0.0006151574803149606
NARR_3HR	03/10/2014	09:00:00	0.0003075787401574803
NARR_3HR	03/10/2014	12:00:00	0.0
NARR_3HR	03/10/2014	15:00:00	0.0
NARR_3HR	03/10/2014	18:00:00	0.0
NARR_3HR	03/10/2014	21:00:00	0.0
NARR_3HR	03/11/2014	00:00:00	0.0
NARR_3HR	03/11/2014	03:00:00	0.0
NARR_3HR	03/11/2014	06:00:00	0.0
NARR_3HR	03/11/2014	09:00:00	0.0006151574803149606
NARR_3HR	03/11/2014	12:00:00	0.0006151574803149606
NARR_3HR	03/11/2014	15:00:00	0.0
NARR_3HR	03/11/2014	18:00:00	0.0003075787401574803
NARR_3HR	03/11/2014	21:00:00	0.013841043307086616
NARR_3HR	03/12/2014	00:00:00	0.0
NARR_3HR	03/12/2014	03:00:00	0.042753444881889764
NARR_3HR	03/12/2014	06:00:00	0.07997047244094489
NARR_3HR	03/12/2014	09:00:00	0.08642962598425197
NARR_3HR	03/12/2014	12:00:00	0.02829724409448819
NARR_3HR	03/12/2014	15:00:00	0.01939890891548217
NARR_3HR	03/12/2014	18:00:00	0.003998523622047244
NARR_3HR	03/12/2014	21:00:00	0.0024606299212598425
NARR_3HR	03/13/2014	00:00:00	0.0
NARR_3HR	03/13/2014	03:00:00	0.0
NARR_3HR	03/13/2014	06:00:00	0.0
NARR_3HR	03/13/2014	09:00:00	0.0
NARR_3HR	03/13/2014	12:00:00	0.0
NARR_3HR	03/13/2014	15:00:00	0.0
NARR_3HR	03/13/2014	18:00:00	0.0
NARR_3HR	03/13/2014	21:00:00	0.0
NARR_3HR	03/14/2014	00:00:00	0.0
NARR_3HR	03/14/2014	03:00:00	0.0
NARR_3HR	03/14/2014	06:00:00	0.0
NARR_3HR	03/14/2014	09:00:00	0.0
NARR_3HR	03/14/2014	12:00:00	0.0015378937007874017
NARR_3HR	03/14/2014	15:00:00	0.0003075787401574803
NARR_3HR	03/14/2014	18:00:00	0.0003075787401574803
NARR_3HR	03/14/2014	21:00:00	0.0
NARR_3HR	03/15/2014	00:00:00	0.0
NARR_3HR	03/15/2014	03:00:00	0.0003075787401574803
NARR_3HR	03/15/2014	06:00:00	0.0015378937007874017
NARR_3HR	03/15/2014	09:00:00	0.0
NARR_3HR	03/15/2014	12:00:00	0.0
NARR_3HR	03/15/2014	15:00:00	9.176899737671135e-05
NARR_3HR	03/15/2014	18:00:00	0.0006151574803149606
NARR_3HR	03/15/2014	21:00:00	0.0006151574803149606
NARR_3HR	03/16/2014	00:00:00	0.0003075787401574803
NARR_3HR	03/16/2014	03:00:00	0.0006151574803149606
NARR_3HR	03/16/2014	06:00:00	0.0003075787401574803
NARR_3HR	03/16/2014	09:00:00	0.0
NARR_3HR	03/16/2014	12:00:00	0.0