[TITLE]
;; No Green Infrastructure
;; 360470220002 New York, Kings County
;; Tract: 0220	Block Group: 002

[OPTIONS]
;;Option		Value
FLOW_UNITS		CFS
INFILTRATION		GREEN_AMPT
FLOW_ROUTING		KINWAVE
LINK_OFFSETS		DEPTH
MIN_SLOPE		0
ALLOW_PONDING		NO
SKIP_STEADY_STATE	NO

START_DATE		01/01/2014
START_TIME		00:00:00
REPORT_START_DATE	01/01/2014
REPORT_START_TIME	00:00:00
END_DATE		12/31/2014
END_TIME		23:59:59
SWEEP_START		01/01
SWEEP_END		12/31
DRY_DAYS		0
REPORT_STEP		01:00:00
WET_STEP		00:06:00
DRY_STEP		00:06:00
ROUTING_STEP		00:01:00

INERTIAL_DAMPING	PARTIAL
NORMAL_FLOW_LIMITED	BOTH
FORCE_MAIN_EQUATION	H-W
VARIABLE_STEP		0.75
LENGTHENING_STEP	0
MIN_SURFAREA		12.557
MAX_TRIALS		8
HEAD_TOLERANCE		0.005
SYS_FLOW_TOL		5
LAT_FLOW_TOL		5
MINIMUM_STEP		0.5
THREADS			1

[EVAPORATION]
;;DATA	Source	Parameters
;;------------------------
MONTHLY	0.022928126393651962	0.026883973818212746	0.04004412095096111	0.07310677424906492	0.12286237908306122	0.14983162748222348	0.15328787272844313	0.11652369859178068	0.08915454504973888	0.058766142409241204	0.02968340837728381	0.01918548419459164	
DRY_ONLY	YES

[RAINGAGES]
;;Name	Format	Interval	SCF	Source
;;--------------------------------------------
RainGage2	VOLUME	03:00:00	1	TIMESERIES NARR_3HR

[SUBCATCHMENTS]
;;Name	Rain Gage	Outlet	Area	%Imperv	Width	%Slope	CurbLen	SnowPack
;;------------------------------------------------------------------------------
Subcatch1	RainGage2	Outfall1	14.0108535000138	93.8888888888889	4068.75185640401	1.43641710281372	0
Subcatch2	RainGage2	Outfall1	0	100	0	0	0
Subcatch3	Raingage2	Outfall1	0.000	100	0	0	0
Subcatch4	RainGage2	Cisterns	0.000	100	0	0	0

[SUBAREAS]
;;Subcatch	N-Imperv	N-Perv	S-Imperv	S-Perv	PctZero	RouteTo	PctRouted
;;---------------------------------------------------------------------------------------
Subcatch1	0.01	.3	0.05	.2	0	OUTLET
Subcatch2	0	0	0	0	0	OUTLET
Subcatch3	0	0	0	6	0	OUTLET
Subcatch4	0	0	0	0	0	OUTLET

[INFILTRATION]
;;Subcatchment	Suction	Ksat	IMD
;;------------------------------------------------------
Subcatch1	4.25173506408808	.397457047761342	.413885714285714
Subcatch2	4.25173506408808	.397457047761342	.413885714285714
Subcatch3	4.25173506408808	.397457047761342	.413885714285714
Subcatch4	4.25173506408808	.397457047761342	.413885714285714

[LID_CONTROLS]
;;Name	Type/Layer	Parameters
;;--------------------------------------------
RainGarden	BC
RainGarden	SURFACE	6	0	0	0	0
RainGarden	SOIL	12	0.45	0.1	0.05	10	10	1.6
RainGarden	STORAGE	0	0	0.4	0
RainGarden	DRAIN	0	0.5	6	6

GreenRoof	BC
GreenRoof	SURFACE	0	0	0	0	0
GreenRoof	SOIL	4	0.45	0.1	0.05	10	10	1.6
GreenRoof	STORAGE	3	0.75	0	0
GreenRoof	DRAIN	10	0.5	0	0

StreetPlanter	BC
StreetPlanter	SURFACE	6	0	0	0	0
StreetPlanter	SOIL	18	0.45	0.1	0.05	10	10	1.6
StreetPlanter	STORAGE	12	0.75	0.108	0

PorousPavement	PP
PorousPavement	SURFACE	0.05	0	0.01	3	0
PorousPavement	PAVEMENT	6	0.12	0	400	0
PorousPavement	STORAGE	18	0.75	0.108	0

[LID_USAGE]
;;Subcatchment	LID	Process	Number	Area	Width	InitSat	FromImp	ToPerv	RptFile	DrainTo

[JUNCTIONS]
;;Name	Elevation	MaxDepth	InitDepth	SurDepth	Aponded
;;---------------------------------------------------------
Cisterns	0	0	0	0	0

[OUTFALLS]
;;Name	Elevation	Type	Stage	Data	Gated	Routed	To
;;----------------------------------------------------------------------------
Outfall1	0	FREE	NO

[STORAGE]

[CONDUITS]

[XSECTIONS]

[TIMESERIES]
;;Name	Date	Time	Value
;;---------------------------
NARR_3HR	01/01/2014	00:00:00	0.0
NARR_3HR	01/01/2014	03:00:00	0.0
NARR_3HR	01/01/2014	06:00:00	0.0
NARR_3HR	01/01/2014	09:00:00	0.0
NARR_3HR	01/01/2014	12:00:00	0.0
NARR_3HR	01/01/2014	15:00:00	0.0003075787401574803
NARR_3HR	01/01/2014	18:00:00	0.0003075787401574803
NARR_3HR	01/01/2014	21:00:00	0.0003075787401574803
NARR_3HR	01/02/2014	00:00:00	0.0003075787401574803
NARR_3HR	01/02/2014	03:00:00	0.0006151574803149606
NARR_3HR	01/02/2014	06:00:00	0.0006151574803149606
NARR_3HR	01/02/2014	09:00:00	0.001845472440944882
NARR_3HR	01/02/2014	12:00:00	0.0003075787401574803
NARR_3HR	01/02/2014	15:00:00	0.0003075787401574803
NARR_3HR	01/02/2014	18:00:00	0.0003075787401574803
NARR_3HR	01/02/2014	21:00:00	0.18977608267716536
NARR_3HR	01/03/2014	00:00:00	0.0390625
NARR_3HR	01/03/2014	03:00:00	0.0658218503937008
NARR_3HR	01/03/2014	06:00:00	0.07597194881889764
NARR_3HR	01/03/2014	09:00:00	0.03229576771653544
NARR_3HR	01/03/2014	12:00:00	0.002768208661417323
NARR_3HR	01/03/2014	15:00:00	0.001845472440944882
NARR_3HR	01/03/2014	18:00:00	0.0
NARR_3HR	01/03/2014	21:00:00	0.0
NARR_3HR	01/04/2014	00:00:00	0.0
NARR_3HR	01/04/2014	03:00:00	0.0
NARR_3HR	01/04/2014	06:00:00	0.0
NARR_3HR	01/04/2014	09:00:00	0.0
NARR_3HR	01/04/2014	12:00:00	0.0
NARR_3HR	01/04/2014	15:00:00	0.0006151574803149606
NARR_3HR	01/04/2014	18:00:00	0.0
NARR_3HR	01/04/2014	21:00:00	0.0
NARR_3HR	01/05/2014	00:00:00	0.0
NARR_3HR	01/05/2014	03:00:00	0.0
NARR_3HR	01/05/2014	06:00:00	0.0
NARR_3HR	01/05/2014	09:00:00	0.0
NARR_3HR	01/05/2014	12:00:00	0.0009772578973000444
NARR_3HR	01/05/2014	15:00:00	0.02860482283464567
NARR_3HR	01/05/2014	18:00:00	0.015994094488188976
NARR_3HR	01/05/2014	21:00:00	0.007381889763779528
NARR_3HR	01/06/2014	00:00:00	0.013225885826771654
NARR_3HR	01/06/2014	03:00:00	0.047674704724409454
NARR_3HR	01/06/2014	06:00:00	0.06459153543307088
NARR_3HR	01/06/2014	09:00:00	0.13656496062992127
NARR_3HR	01/06/2014	12:00:00	0.265748031496063
NARR_3HR	01/06/2014	15:00:00	0.021222933070866142
NARR_3HR	01/06/2014	18:00:00	0.000922736220472441
NARR_3HR	01/06/2014	21:00:00	0.0003075787401574803
NARR_3HR	01/07/2014	00:00:00	0.0
NARR_3HR	01/07/2014	03:00:00	0.0003319172056641166
NARR_3HR	01/07/2014	06:00:00	0.0003075787401574803
NARR_3HR	01/07/2014	09:00:00	0.0006151574803149606
NARR_3HR	01/07/2014	12:00:00	0.0
NARR_3HR	01/07/2014	15:00:00	0.0003075787401574803
NARR_3HR	01/07/2014	18:00:00	0.0
NARR_3HR	01/07/2014	21:00:00	0.0
NARR_3HR	01/08/2014	00:00:00	0.0
NARR_3HR	01/08/2014	03:00:00	0.0
NARR_3HR	01/08/2014	06:00:00	0.0
NARR_3HR	01/08/2014	09:00:00	0.0
NARR_3HR	01/08/2014	12:00:00	0.0
NARR_3HR	01/08/2014	15:00:00	0.0
NARR_3HR	01/08/2014	18:00:00	0.0
NARR_3HR	01/08/2014	21:00:00	0.0
NARR_3HR	01/09/2014	00:00:00	0.0
NARR_3HR	01/09/2014	03:00:00	0.0003075787401574803
NARR_3HR	01/09/2014	06:00:00	0.0003075787401574803
NARR_3HR	01/09/2014	09:00:00	0.0
NARR_3HR	01/09/2014	12:00:00	0.0
NARR_3HR	01/09/2014	15:00:00	0.0
NARR_3HR	01/09/2014	18:00:00	0.0
NARR_3HR	01/09/2014	21:00:00	0.0
NARR_3HR	01/10/2014	00:00:00	0.0
NARR_3HR	01/10/2014	03:00:00	0.0
NARR_3HR	01/10/2014	06:00:00	0.0006151574803149606
NARR_3HR	01/10/2014	09:00:00	0.0006151574803149606
NARR_3HR	01/10/2014	12:00:00	0.06674458661417323
NARR_3HR	01/10/2014	15:00:00	0.07535679133858268
NARR_3HR	01/10/2014	18:00:00	0.040907972440944886
NARR_3HR	01/10/2014	21:00:00	0.01665139174836827
NARR_3HR	01/11/2014	00:00:00	0.002768208661417323
NARR_3HR	01/11/2014	03:00:00	0.04062889598485992
NARR_3HR	01/11/2014	06:00:00	0.014456200787401575
NARR_3HR	01/11/2014	09:00:00	0.041523129921259845
NARR_3HR	01/11/2014	12:00:00	0.020607775590551183
NARR_3HR	01/11/2014	15:00:00	0.11534202755905512
NARR_3HR	01/11/2014	18:00:00	0.10949803149606299
NARR_3HR	01/11/2014	21:00:00	0.23652805118110237
NARR_3HR	01/12/2014	00:00:00	0.014148622047244095
NARR_3HR	01/12/2014	03:00:00	0.005228838582677166
NARR_3HR	01/12/2014	06:00:00	0.0
NARR_3HR	01/12/2014	09:00:00	0.0003075787401574803
NARR_3HR	01/12/2014	12:00:00	0.0
NARR_3HR	01/12/2014	15:00:00	0.0
NARR_3HR	01/12/2014	18:00:00	0.0
NARR_3HR	01/12/2014	21:00:00	0.0
NARR_3HR	01/13/2014	00:00:00	0.0
NARR_3HR	01/13/2014	03:00:00	0.0
NARR_3HR	01/13/2014	06:00:00	0.0
NARR_3HR	01/13/2014	09:00:00	0.0
NARR_3HR	01/13/2014	12:00:00	0.0
NARR_3HR	01/13/2014	15:00:00	0.0
NARR_3HR	01/13/2014	18:00:00	0.0006151574803149606
NARR_3HR	01/13/2014	21:00:00	0.0
NARR_3HR	01/14/2014	00:00:00	0.0003075787401574803
NARR_3HR	01/14/2014	03:00:00	0.0003075787401574803
NARR_3HR	01/14/2014	06:00:00	0.000922736220472441
NARR_3HR	01/14/2014	09:00:00	0.007381889763779528
NARR_3HR	01/14/2014	12:00:00	0.05597933070866142
NARR_3HR	01/14/2014	15:00:00	0.09327015538853924
NARR_3HR	01/14/2014	18:00:00	0.16178641732283466
NARR_3HR	01/14/2014	21:00:00	0.05013533464566929
NARR_3HR	01/15/2014	00:00:00	0.00044516837737691684
NARR_3HR	01/15/2014	03:00:00	0.0003075787401574803
NARR_3HR	01/15/2014	06:00:00	0.0
NARR_3HR	01/15/2014	09:00:00	0.000922736220472441
NARR_3HR	01/15/2014	12:00:00	0.0003075787401574803
NARR_3HR	01/15/2014	15:00:00	0.0
NARR_3HR	01/15/2014	18:00:00	0.0
NARR_3HR	01/15/2014	21:00:00	0.0
NARR_3HR	01/16/2014	00:00:00	0.0
NARR_3HR	01/16/2014	03:00:00	0.0
NARR_3HR	01/16/2014	06:00:00	0.0015378937007874017
NARR_3HR	01/16/2014	09:00:00	0.000922736220472441
NARR_3HR	01/16/2014	12:00:00	0.0006151574803149606
NARR_3HR	01/16/2014	15:00:00	0.0
NARR_3HR	01/16/2014	18:00:00	0.0
NARR_3HR	01/16/2014	21:00:00	0.0
NARR_3HR	01/17/2014	00:00:00	0.0
NARR_3HR	01/17/2014	03:00:00	0.0
NARR_3HR	01/17/2014	06:00:00	0.0
NARR_3HR	01/17/2014	09:00:00	0.0
NARR_3HR	01/17/2014	12:00:00	0.0
NARR_3HR	01/17/2014	15:00:00	0.0
NARR_3HR	01/17/2014	18:00:00	0.0
NARR_3HR	01/17/2014	21:00:00	0.0
NARR_3HR	01/18/2014	00:00:00	0.0003075787401574803
NARR_3HR	01/18/2014	03:00:00	0.0003075787401574803
NARR_3HR	01/18/2014	06:00:00	0.0
NARR_3HR	01/18/2014	09:00:00	0.0006151574803149606
NARR_3HR	01/18/2014	12:00:00	0.007689468503937008
NARR_3HR	01/18/2014	15:00:00	0.09811761811023623
NARR_3HR	01/18/2014	18:00:00	0.005536417322834646
NARR_3HR	01/18/2014	21:00:00	0.0
NARR_3HR	01/19/2014	00:00:00	5.977726944788235e-05
NARR_3HR	01/19/2014	03:00:00	0.0
NARR_3HR	01/19/2014	06:00:00	0.0003075787401574803
NARR_3HR	01/19/2014	09:00:00	0.0003075787401574803
NARR_3HR	01/19/2014	12:00:00	0.0003075787401574803
NARR_3HR	01/19/2014	15:00:00	0.0003075787401574803
NARR_3HR	01/19/2014	18:00:00	0.0
NARR_3HR	01/19/2014	21:00:00	0.0
NARR_3HR	01/20/2014	00:00:00	0.0
NARR_3HR	01/20/2014	03:00:00	0.0
NARR_3HR	01/20/2014	06:00:00	0.0
NARR_3HR	01/20/2014	09:00:00	0.0
NARR_3HR	01/20/2014	12:00:00	0.0003075787401574803
NARR_3HR	01/20/2014	15:00:00	0.0
NARR_3HR	01/20/2014	18:00:00	0.0
NARR_3HR	01/20/2014	21:00:00	0.0
NARR_3HR	01/21/2014	00:00:00	0.0
NARR_3HR	01/21/2014	03:00:00	0.0
NARR_3HR	01/21/2014	06:00:00	0.0
NARR_3HR	01/21/2014	09:00:00	0.0003075787401574803
NARR_3HR	01/21/2014	12:00:00	0.13502706692913385
NARR_3HR	01/21/2014	15:00:00	0.006459153543307087
NARR_3HR	01/21/2014	18:00:00	0.003690944881889764
NARR_3HR	01/21/2014	21:00:00	0.004613681102362205
NARR_3HR	01/22/2014	00:00:00	0.02860482283464567
NARR_3HR	01/22/2014	03:00:00	0.013892919294477448
NARR_3HR	01/22/2014	06:00:00	0.017531988188976378
NARR_3HR	01/22/2014	09:00:00	0.0012303149606299212
NARR_3HR	01/22/2014	12:00:00	0.0003075787401574803
NARR_3HR	01/22/2014	15:00:00	0.0003075787401574803
NARR_3HR	01/22/2014	18:00:00	0.0
NARR_3HR	01/22/2014	21:00:00	0.0
NARR_3HR	01/23/2014	00:00:00	0.0
NARR_3HR	01/23/2014	03:00:00	0.0
NARR_3HR	01/23/2014	06:00:00	0.0
NARR_3HR	01/23/2014	09:00:00	0.0003075787401574803
NARR_3HR	01/23/2014	12:00:00	0.0
NARR_3HR	01/23/2014	15:00:00	0.0
NARR_3HR	01/23/2014	18:00:00	0.000922736220472441
NARR_3HR	01/23/2014	21:00:00	0.0
NARR_3HR	01/24/2014	00:00:00	0.0006151574803149606
NARR_3HR	01/24/2014	03:00:00	0.0003075787401574803
NARR_3HR	01/24/2014	06:00:00	0.0006151574803149606
NARR_3HR	01/24/2014	09:00:00	0.0003075787401574803
NARR_3HR	01/24/2014	12:00:00	0.0003075787401574803
NARR_3HR	01/24/2014	15:00:00	0.0003075787401574803
NARR_3HR	01/24/2014	18:00:00	0.0
NARR_3HR	01/24/2014	21:00:00	0.0003075787401574803
NARR_3HR	01/25/2014	00:00:00	0.0
NARR_3HR	01/25/2014	03:00:00	0.0
NARR_3HR	01/25/2014	06:00:00	0.0
NARR_3HR	01/25/2014	09:00:00	0.0
NARR_3HR	01/25/2014	12:00:00	0.001845472440944882
NARR_3HR	01/25/2014	15:00:00	0.0021530511811023623
NARR_3HR	01/25/2014	18:00:00	0.0030757874015748033
NARR_3HR	01/25/2014	21:00:00	0.0024606299212598425
NARR_3HR	01/26/2014	00:00:00	0.001845472440944882
NARR_3HR	01/26/2014	03:00:00	0.001845472440944882
NARR_3HR	01/26/2014	06:00:00	0.0006151574803149606
NARR_3HR	01/26/2014	09:00:00	0.0021530511811023623
NARR_3HR	01/26/2014	12:00:00	0.0
NARR_3HR	01/26/2014	15:00:00	0.0006151574803149606
NARR_3HR	01/26/2014	18:00:00	0.0006151574803149606
NARR_3HR	01/26/2014	21:00:00	0.0
NARR_3HR	01/27/2014	00:00:00	0.0
NARR_3HR	01/27/2014	03:00:00	0.0
NARR_3HR	01/27/2014	06:00:00	0.0006151574803149606
NARR_3HR	01/27/2014	09:00:00	1.3105981931911679e-05
NARR_3HR	01/27/2014	12:00:00	0.0015378937007874017
NARR_3HR	01/27/2014	15:00:00	0.04431275870856338
NARR_3HR	01/27/2014	18:00:00	0.0012303149606299212
NARR_3HR	01/27/2014	21:00:00	0.0
NARR_3HR	01/28/2014	00:00:00	0.0
NARR_3HR	01/28/2014	03:00:00	0.0
NARR_3HR	01/28/2014	06:00:00	0.0
NARR_3HR	01/28/2014	09:00:00	0.0
NARR_3HR	01/28/2014	12:00:00	0.0021530511811023623
NARR_3HR	01/28/2014	15:00:00	0.0021530511811023623
NARR_3HR	01/28/2014	18:00:00	0.0024606299212598425
NARR_3HR	01/28/2014	21:00:00	0.002768208661417323
NARR_3HR	01/29/2014	00:00:00	0.0024606299212598425
NARR_3HR	01/29/2014	03:00:00	0.0021530511811023623
NARR_3HR	01/29/2014	06:00:00	0.005228838582677166
NARR_3HR	01/29/2014	09:00:00	0.006459153543307087
NARR_3HR	01/29/2014	12:00:00	0.0
NARR_3HR	01/29/2014	15:00:00	0.0
NARR_3HR	01/29/2014	18:00:00	0.0
NARR_3HR	01/29/2014	21:00:00	0.0
NARR_3HR	01/30/2014	00:00:00	0.0
NARR_3HR	01/30/2014	03:00:00	0.0
NARR_3HR	01/30/2014	06:00:00	0.0
NARR_3HR	01/30/2014	09:00:00	5.568869001283421e-05
NARR_3HR	01/30/2014	12:00:00	0.0
NARR_3HR	01/30/2014	15:00:00	0.0
NARR_3HR	01/30/2014	18:00:00	0.0
NARR_3HR	01/30/2014	21:00:00	0.0
NARR_3HR	01/31/2014	00:00:00	0.0
NARR_3HR	01/31/2014	03:00:00	0.0
NARR_3HR	01/31/2014	06:00:00	0.0
NARR_3HR	01/31/2014	09:00:00	0.0
NARR_3HR	01/31/2014	12:00:00	0.00034043800056450014
NARR_3HR	01/31/2014	15:00:00	0.0018834167226093022
NARR_3HR	01/31/2014	18:00:00	0.0015378937007874017
NARR_3HR	01/31/2014	21:00:00	0.0003075787401574803
NARR_3HR	02/01/2014	00:00:00	0.0003075787401574803
NARR_3HR	02/01/2014	03:00:00	0.0003075787401574803
NARR_3HR	02/01/2014	06:00:00	0.0003075787401574803
NARR_3HR	02/01/2014	09:00:00	0.0003075787401574803
NARR_3HR	02/01/2014	12:00:00	0.0006151574803149606
NARR_3HR	02/01/2014	15:00:00	0.003998523622047244
NARR_3HR	02/01/2014	18:00:00	0.0012303149606299212
NARR_3HR	02/01/2014	21:00:00	0.0
NARR_3HR	02/02/2014	00:00:00	0.0
NARR_3HR	02/02/2014	03:00:00	0.0
NARR_3HR	02/02/2014	06:00:00	0.0
NARR_3HR	02/02/2014	09:00:00	0.0
NARR_3HR	02/02/2014	12:00:00	0.0
NARR_3HR	02/02/2014	15:00:00	0.0
NARR_3HR	02/02/2014	18:00:00	0.0006151574803149606
NARR_3HR	02/02/2014	21:00:00	0.000922736220472441
NARR_3HR	02/03/2014	00:00:00	0.0003075787401574803
NARR_3HR	02/03/2014	03:00:00	0.0006151574803149606
NARR_3HR	02/03/2014	06:00:00	0.054441437007874016
NARR_3HR	02/03/2014	09:00:00	0.18239419291338585
NARR_3HR	02/03/2014	12:00:00	0.274052657480315
NARR_3HR	02/03/2014	15:00:00	0.08273868110236221
NARR_3HR	02/03/2014	18:00:00	0.05202309353145089
NARR_3HR	02/03/2014	21:00:00	0.011072834645669292
NARR_3HR	02/04/2014	00:00:00	0.0
NARR_3HR	02/04/2014	03:00:00	0.0
NARR_3HR	02/04/2014	06:00:00	0.0
NARR_3HR	02/04/2014	09:00:00	0.0
NARR_3HR	02/04/2014	12:00:00	0.0006151574803149606
NARR_3HR	02/04/2014	15:00:00	0.0037720937311179997
NARR_3HR	02/04/2014	18:00:00	0.040600393700787406
NARR_3HR	02/04/2014	21:00:00	0.006766732283464567
NARR_3HR	02/05/2014	00:00:00	0.0003075787401574803
NARR_3HR	02/05/2014	03:00:00	0.004613681102362205
NARR_3HR	02/05/2014	06:00:00	0.28389517716535434
NARR_3HR	02/05/2014	09:00:00	0.5923966535433072
NARR_3HR	02/05/2014	12:00:00	0.27436023622047245
NARR_3HR	02/05/2014	15:00:00	0.062130905511811024
NARR_3HR	02/05/2014	18:00:00	0.05228838582677166
NARR_3HR	02/05/2014	21:00:00	0.048289862204724414
NARR_3HR	02/06/2014	00:00:00	0.0030757874015748033
NARR_3HR	02/06/2014	03:00:00	0.0
NARR_3HR	02/06/2014	06:00:00	0.00011807246185017853
NARR_3HR	02/06/2014	09:00:00	0.0
NARR_3HR	02/06/2014	12:00:00	0.0
NARR_3HR	02/06/2014	15:00:00	0.011687992125984252
NARR_3HR	02/06/2014	18:00:00	0.021838090551181105
NARR_3HR	02/06/2014	21:00:00	0.003690944881889764
NARR_3HR	02/07/2014	00:00:00	0.0
NARR_3HR	02/07/2014	03:00:00	1.0912460604990562e-05
NARR_3HR	02/07/2014	06:00:00	0.0003075787401574803
NARR_3HR	02/07/2014	09:00:00	0.0
NARR_3HR	02/07/2014	12:00:00	0.0001136738509966398
NARR_3HR	02/07/2014	15:00:00	0.006151574803149607
NARR_3HR	02/07/2014	18:00:00	0.0021530511811023623
NARR_3HR	02/07/2014	21:00:00	0.0
NARR_3HR	02/08/2014	00:00:00	0.0
NARR_3HR	02/08/2014	03:00:00	0.0
NARR_3HR	02/08/2014	06:00:00	0.0
NARR_3HR	02/08/2014	09:00:00	0.0
NARR_3HR	02/08/2014	12:00:00	0.0
NARR_3HR	02/08/2014	15:00:00	0.0024606299212598425
NARR_3HR	02/08/2014	18:00:00	0.002768208661417323
NARR_3HR	02/08/2014	21:00:00	0.0006151574803149606
NARR_3HR	02/09/2014	00:00:00	0.0003075787401574803
NARR_3HR	02/09/2014	03:00:00	0.0
NARR_3HR	02/09/2014	06:00:00	0.0
NARR_3HR	02/09/2014	09:00:00	0.0
NARR_3HR	02/09/2014	12:00:00	0.0003075787401574803
NARR_3HR	02/09/2014	15:00:00	0.000922736220472441
NARR_3HR	02/09/2014	18:00:00	0.0012303149606299212
NARR_3HR	02/09/2014	21:00:00	0.0015378937007874017
NARR_3HR	02/10/2014	00:00:00	0.04490649606299213
NARR_3HR	02/10/2014	03:00:00	0.0003075787401574803
NARR_3HR	02/10/2014	06:00:00	0.0
NARR_3HR	02/10/2014	09:00:00	0.0
NARR_3HR	02/10/2014	12:00:00	0.0
NARR_3HR	02/10/2014	15:00:00	0.003998523622047244
NARR_3HR	02/10/2014	18:00:00	0.0033833661417322835
NARR_3HR	02/10/2014	21:00:00	0.0
NARR_3HR	02/11/2014	00:00:00	0.0
NARR_3HR	02/11/2014	03:00:00	0.0
NARR_3HR	02/11/2014	06:00:00	0.0
NARR_3HR	02/11/2014	09:00:00	0.0
NARR_3HR	02/11/2014	12:00:00	0.0003075787401574803
NARR_3HR	02/11/2014	15:00:00	0.0003075787401574803
NARR_3HR	02/11/2014	18:00:00	2.757291397534487e-05
NARR_3HR	02/11/2014	21:00:00	0.0
NARR_3HR	02/12/2014	00:00:00	0.0
NARR_3HR	02/12/2014	03:00:00	0.0
NARR_3HR	02/12/2014	06:00:00	0.0
NARR_3HR	02/12/2014	09:00:00	0.0
NARR_3HR	02/12/2014	12:00:00	0.0
NARR_3HR	02/12/2014	15:00:00	5.266695158688102e-05
NARR_3HR	02/12/2014	18:00:00	0.0
NARR_3HR	02/12/2014	21:00:00	0.004306102362204725
NARR_3HR	02/13/2014	00:00:00	0.0006151574803149606
NARR_3HR	02/13/2014	03:00:00	0.002768208661417323
NARR_3HR	02/13/2014	06:00:00	0.023068405511811024
NARR_3HR	02/13/2014	09:00:00	0.1848548228346457
NARR_3HR	02/13/2014	12:00:00	0.3810900590551181
NARR_3HR	02/13/2014	15:00:00	0.12918307086614175
NARR_3HR	02/13/2014	18:00:00	0.09657972440944883
NARR_3HR	02/13/2014	21:00:00	0.023375984251968504
NARR_3HR	02/14/2014	00:00:00	0.5564099409448819
NARR_3HR	02/14/2014	03:00:00	0.054749015748031496
NARR_3HR	02/14/2014	06:00:00	0.11995570866141733
NARR_3HR	02/14/2014	09:00:00	0.015071358267716536
NARR_3HR	02/14/2014	12:00:00	0.013841043307086616
NARR_3HR	02/14/2014	15:00:00	0.07412647637795276
NARR_3HR	02/14/2014	18:00:00	0.05843996062992126
NARR_3HR	02/14/2014	21:00:00	0.006151574803149607
NARR_3HR	02/15/2014	00:00:00	0.0
NARR_3HR	02/15/2014	03:00:00	0.0
NARR_3HR	02/15/2014	06:00:00	0.0
NARR_3HR	02/15/2014	09:00:00	0.0006151574803149606
NARR_3HR	02/15/2014	12:00:00	0.00830462598425197
NARR_3HR	02/15/2014	15:00:00	0.022453248031496065
NARR_3HR	02/15/2014	18:00:00	0.02891240157480315
NARR_3HR	02/15/2014	21:00:00	0.054749015748031496
NARR_3HR	02/16/2014	00:00:00	0.00830462598425197
NARR_3HR	02/16/2014	03:00:00	0.007997047244094488
NARR_3HR	02/16/2014	06:00:00	0.0033833661417322835
NARR_3HR	02/16/2014	09:00:00	0.004306102362204725
NARR_3HR	02/16/2014	12:00:00	0.0
NARR_3HR	02/16/2014	15:00:00	0.006766732283464567
NARR_3HR	02/16/2014	18:00:00	0.0012643597140086919
NARR_3HR	02/16/2014	21:00:00	0.0006151574803149606
NARR_3HR	02/17/2014	00:00:00	0.0003075787401574803
NARR_3HR	02/17/2014	03:00:00	0.0
NARR_3HR	02/17/2014	06:00:00	0.0
NARR_3HR	02/17/2014	09:00:00	0.0
NARR_3HR	02/17/2014	12:00:00	0.0
NARR_3HR	02/17/2014	15:00:00	0.0003075787401574803
NARR_3HR	02/17/2014	18:00:00	0.0
NARR_3HR	02/17/2014	21:00:00	0.0
NARR_3HR	02/18/2014	00:00:00	0.0015378937007874017
NARR_3HR	02/18/2014	03:00:00	0.0033833661417322835
NARR_3HR	02/18/2014	06:00:00	0.0033833661417322835
NARR_3HR	02/18/2014	09:00:00	0.02768208661417323
NARR_3HR	02/18/2014	12:00:00	0.04644438976377953
NARR_3HR	02/18/2014	15:00:00	0.011995570866141734
NARR_3HR	02/18/2014	18:00:00	0.014763779527559057
NARR_3HR	02/18/2014	21:00:00	0.001845472440944882
NARR_3HR	02/19/2014	00:00:00	0.0
NARR_3HR	02/19/2014	03:00:00	0.0
NARR_3HR	02/19/2014	06:00:00	0.0
NARR_3HR	02/19/2014	09:00:00	0.00011764553844870076
NARR_3HR	02/19/2014	12:00:00	0.0012303149606299212
NARR_3HR	02/19/2014	15:00:00	0.11195866141732284
NARR_3HR	02/19/2014	18:00:00	0.035063976377952756
NARR_3HR	02/19/2014	21:00:00	0.1356422244094488
NARR_3HR	02/20/2014	00:00:00	0.0
NARR_3HR	02/20/2014	03:00:00	0.0
NARR_3HR	02/20/2014	06:00:00	0.0
NARR_3HR	02/20/2014	09:00:00	0.0
NARR_3HR	02/20/2014	12:00:00	0.0006151574803149606
NARR_3HR	02/20/2014	15:00:00	0.0012303149606299212
NARR_3HR	02/20/2014	18:00:00	0.0006151574803149606
NARR_3HR	02/20/2014	21:00:00	0.0003075787401574803
NARR_3HR	02/21/2014	00:00:00	0.0018499798955410485
NARR_3HR	02/21/2014	03:00:00	0.00042517750164655253
NARR_3HR	02/21/2014	06:00:00	9.321086072018298e-07
NARR_3HR	02/21/2014	09:00:00	0.007997047244094488
NARR_3HR	02/21/2014	12:00:00	0.011072834645669292
NARR_3HR	02/21/2014	15:00:00	0.0024606299212598425
NARR_3HR	02/21/2014	18:00:00	0.08858267716535434
NARR_3HR	02/21/2014	21:00:00	0.024913877952755906
NARR_3HR	02/22/2014	00:00:00	0.0
NARR_3HR	02/22/2014	03:00:00	0.0
NARR_3HR	02/22/2014	06:00:00	0.0
NARR_3HR	02/22/2014	09:00:00	0.0
NARR_3HR	02/22/2014	12:00:00	0.0
NARR_3HR	02/22/2014	15:00:00	0.0
NARR_3HR	02/22/2014	18:00:00	0.0
NARR_3HR	02/22/2014	21:00:00	0.0
NARR_3HR	02/23/2014	00:00:00	3.563240170478821e-05
NARR_3HR	02/23/2014	03:00:00	0.0
NARR_3HR	02/23/2014	06:00:00	0.0
NARR_3HR	02/23/2014	09:00:00	0.0
NARR_3HR	02/23/2014	12:00:00	0.0003075787401574803
NARR_3HR	02/23/2014	15:00:00	0.0003075787401574803
NARR_3HR	02/23/2014	18:00:00	0.0
NARR_3HR	02/23/2014	21:00:00	0.0003075787401574803
NARR_3HR	02/24/2014	00:00:00	0.0006151574803149606
NARR_3HR	02/24/2014	03:00:00	0.0003075787401574803
NARR_3HR	02/24/2014	06:00:00	0.0015378937007874017
NARR_3HR	02/24/2014	09:00:00	0.0
NARR_3HR	02/24/2014	12:00:00	0.0
NARR_3HR	02/24/2014	15:00:00	0.0
NARR_3HR	02/24/2014	18:00:00	7.69163822887216e-05
NARR_3HR	02/24/2014	21:00:00	0.0003075787401574803
NARR_3HR	02/25/2014	00:00:00	0.0006151574803149606
NARR_3HR	02/25/2014	03:00:00	0.0
NARR_3HR	02/25/2014	06:00:00	0.0
NARR_3HR	02/25/2014	09:00:00	0.0003075787401574803
NARR_3HR	02/25/2014	12:00:00	0.0003075787401574803
NARR_3HR	02/25/2014	15:00:00	0.0003075787401574803
NARR_3HR	02/25/2014	18:00:00	0.0
NARR_3HR	02/25/2014	21:00:00	0.0003075787401574803
NARR_3HR	02/26/2014	00:00:00	0.0
NARR_3HR	02/26/2014	03:00:00	0.0
NARR_3HR	02/26/2014	06:00:00	0.0003075787401574803
NARR_3HR	02/26/2014	09:00:00	0.0
NARR_3HR	02/26/2014	12:00:00	0.0021530511811023623
NARR_3HR	02/26/2014	15:00:00	0.00984251968503937
NARR_3HR	02/26/2014	18:00:00	0.0015378937007874017
NARR_3HR	02/26/2014	21:00:00	0.0012303149606299212
NARR_3HR	02/27/2014	00:00:00	0.0
NARR_3HR	02/27/2014	03:00:00	0.0
NARR_3HR	02/27/2014	06:00:00	0.0
NARR_3HR	02/27/2014	09:00:00	0.0003075787401574803
NARR_3HR	02/27/2014	12:00:00	0.0003075787401574803
NARR_3HR	02/27/2014	15:00:00	0.0003075787401574803
NARR_3HR	02/27/2014	18:00:00	0.0003075787401574803
NARR_3HR	02/27/2014	21:00:00	0.0003075787401574803
NARR_3HR	02/28/2014	00:00:00	0.0
NARR_3HR	02/28/2014	03:00:00	0.0
NARR_3HR	02/28/2014	06:00:00	0.0
NARR_3HR	02/28/2014	09:00:00	0.0
NARR_3HR	02/28/2014	12:00:00	0.0
NARR_3HR	02/28/2014	15:00:00	0.0
NARR_3HR	02/28/2014	18:00:00	0.0
NARR_3HR	02/28/2014	21:00:00	0.0
NARR_3HR	03/01/2014	00:00:00	0.0
NARR_3HR	03/01/2014	03:00:00	0.0
NARR_3HR	03/01/2014	06:00:00	0.00013760881366457528
NARR_3HR	03/01/2014	09:00:00	0.0
NARR_3HR	03/01/2014	12:00:00	0.0
NARR_3HR	03/01/2014	15:00:00	0.0
NARR_3HR	03/01/2014	18:00:00	0.0003075787401574803
NARR_3HR	03/01/2014	21:00:00	0.0003075787401574803
NARR_3HR	03/02/2014	00:00:00	0.0
NARR_3HR	03/02/2014	03:00:00	0.0
NARR_3HR	03/02/2014	06:00:00	0.0
NARR_3HR	03/02/2014	09:00:00	0.0
NARR_3HR	03/02/2014	12:00:00	0.0
NARR_3HR	03/02/2014	15:00:00	0.0
NARR_3HR	03/02/2014	18:00:00	0.004921259842519685
NARR_3HR	03/02/2014	21:00:00	0.0003075787401574803
NARR_3HR	03/03/2014	00:00:00	0.001845472440944882
NARR_3HR	03/03/2014	03:00:00	0.0
NARR_3HR	03/03/2014	06:00:00	0.0015378937007874017
NARR_3HR	03/03/2014	09:00:00	0.002768208661417323
NARR_3HR	03/03/2014	12:00:00	0.0
NARR_3HR	03/03/2014	15:00:00	0.0003075787401574803
NARR_3HR	03/03/2014	18:00:00	0.0003075787401574803
NARR_3HR	03/03/2014	21:00:00	0.0
NARR_3HR	03/04/2014	00:00:00	0.0
NARR_3HR	03/04/2014	03:00:00	0.0
NARR_3HR	03/04/2014	06:00:00	0.0
NARR_3HR	03/04/2014	09:00:00	0.0
NARR_3HR	03/04/2014	12:00:00	0.0
NARR_3HR	03/04/2014	15:00:00	0.0003075787401574803
NARR_3HR	03/04/2014	18:00:00	0.0003075787401574803
NARR_3HR	03/04/2014	21:00:00	0.0003075787401574803
NARR_3HR	03/05/2014	00:00:00	0.0
NARR_3HR	03/05/2014	03:00:00	0.0
NARR_3HR	03/05/2014	06:00:00	0.0
NARR_3HR	03/05/2014	09:00:00	0.0
NARR_3HR	03/05/2014	12:00:00	0.0
NARR_3HR	03/05/2014	15:00:00	0.0
NARR_3HR	03/05/2014	18:00:00	0.0
NARR_3HR	03/05/2014	21:00:00	0.0
NARR_3HR	03/06/2014	00:00:00	0.0
NARR_3HR	03/06/2014	03:00:00	0.0
NARR_3HR	03/06/2014	06:00:00	0.0
NARR_3HR	03/06/2014	09:00:00	0.0
NARR_3HR	03/06/2014	12:00:00	0.0
NARR_3HR	03/06/2014	15:00:00	0.0
NARR_3HR	03/06/2014	18:00:00	0.0
NARR_3HR	03/06/2014	21:00:00	0.0
NARR_3HR	03/07/2014	00:00:00	0.0
NARR_3HR	03/07/2014	03:00:00	0.0
NARR_3HR	03/07/2014	06:00:00	0.0
NARR_3HR	03/07/2014	09:00:00	0.0003075787401574803
NARR_3HR	03/07/2014	12:00:00	0.0
NARR_3HR	03/07/2014	15:00:00	0.0
NARR_3HR	03/07/2014	18:00:00	0.0
NARR_3HR	03/07/2014	21:00:00	0.0
NARR_3HR	03/08/2014	00:00:00	0.0
NARR_3HR	03/08/2014	03:00:00	0.0
NARR_3HR	03/08/2014	06:00:00	0.0
NARR_3HR	03/08/2014	09:00:00	0.0
NARR_3HR	03/08/2014	12:00:00	0.0
NARR_3HR	03/08/2014	15:00:00	0.0
NARR_3HR	03/08/2014	18:00:00	0.0
NARR_3HR	03/08/2014	21:00:00	0.0
NARR_3HR	03/09/2014	00:00:00	0.0
NARR_3HR	03/09/2014	03:00:00	0.007381889763779528
NARR_3HR	03/09/2014	06:00:00	0.0
NARR_3HR	03/09/2014	09:00:00	0.00011135683776297439
NARR_3HR	03/09/2014	12:00:00	0.0
NARR_3HR	03/09/2014	15:00:00	0.0
NARR_3HR	03/09/2014	18:00:00	0.0
NARR_3HR	03/09/2014	21:00:00	0.0
NARR_3HR	03/10/2014	00:00:00	0.0006151574803149606
NARR_3HR	03/10/2014	03:00:00	0.0006151574803149606
NARR_3HR	03/10/2014	06:00:00	0.0003075787401574803
NARR_3HR	03/10/2014	09:00:00	0.0003075787401574803
NARR_3HR	03/10/2014	12:00:00	0.0003075787401574803
NARR_3HR	03/10/2014	15:00:00	0.0
NARR_3HR	03/10/2014	18:00:00	0.0
NARR_3HR	03/10/2014	21:00:00	0.0
NARR_3HR	03/11/2014	00:00:00	0.0
NARR_3HR	03/11/2014	03:00:00	0.0
NARR_3HR	03/11/2014	06:00:00	0.0
NARR_3HR	03/11/2014	09:00:00	0.0
NARR_3HR	03/11/2014	12:00:00	0.0
NARR_3HR	03/11/2014	15:00:00	0.0003075787401574803
NARR_3HR	03/11/2014	18:00:00	0.0
NARR_3HR	03/11/2014	21:00:00	0.0
NARR_3HR	03/12/2014	00:00:00	0.0
NARR_3HR	03/12/2014	03:00:00	0.0003075787401574803
NARR_3HR	03/12/2014	06:00:00	0.0
NARR_3HR	03/12/2014	09:00:00	0.0
NARR_3HR	03/12/2014	12:00:00	0.002768208661417323
NARR_3HR	03/12/2014	15:00:00	2.1448725555825424e-05
NARR_3HR	03/12/2014	18:00:00	0.05536417322834646
NARR_3HR	03/12/2014	21:00:00	0.11534202755905512
NARR_3HR	03/13/2014	00:00:00	0.04952017716535433
NARR_3HR	03/13/2014	03:00:00	0.01814714566929134
NARR_3HR	03/13/2014	06:00:00	0.0
NARR_3HR	03/13/2014	09:00:00	0.0003075787401574803
NARR_3HR	03/13/2014	12:00:00	0.0003075787401574803
NARR_3HR	03/13/2014	15:00:00	0.0003075787401574803
NARR_3HR	03/13/2014	18:00:00	0.0
NARR_3HR	03/13/2014	21:00:00	0.0
NARR_3HR	03/14/2014	00:00:00	0.0
NARR_3HR	03/14/2014	03:00:00	0.0
NARR_3HR	03/14/2014	06:00:00	0.0
NARR_3HR	03/14/2014	09:00:00	0.0
NARR_3HR	03/14/2014	12:00:00	0.0
NARR_3HR	03/14/2014	15:00:00	0.0
NARR_3HR	03/14/2014	18:00:00	0.0
NARR_3HR	03/14/2014	21:00:00	0.0
NARR_3HR	03/15/2014	00:00:00	0.0003075787401574803
NARR_3HR	03/15/2014	03:00:00	0.0003075787401574803
NARR_3HR	03/15/2014	06:00:00	0.0015378937007874017
NARR_3HR	03/15/2014	09:00:00	0.0006151574803149606
NARR_3HR	03/15/2014	12:00:00	0.0
NARR_3HR	03/15/2014	15:00:00	9.176899737671135e-05
NARR_3HR	03/15/2014	18:00:00	0.0
NARR_3HR	03/15/2014	21:00:00	0.0
NARR_3HR	03/16/2014	00:00:00	0.0
NARR_3HR	03/16/2014	03:00:00	0.0
NARR_3HR	03/16/2014	06:00:00	0.0
NARR_3HR	03/16/2014	09:00:00	0.0
NARR_3HR	03/16/2014	12:00:00	0.0
NARR_3HR	03/16/2014	15:00:00	0.0
NARR_3HR	03/16/2014	18:00:00	0.0003075787401574803
NARR_3HR	03/16/2014	21:00:00	0.0003075787401574803
NARR_3HR	03/17/2014	00:00:00	0.0006151574803149606
NARR_3HR	03/17/2014	03:00:00	0.0006151574803149606
NARR_3HR	03/17/2014	06:00:00	0.0006151574803149606
NARR_3HR	03/17/2014	09:00:00	0.0006151574803149606
NARR_3HR	03/17/2014	12:00:00	0.0003075787401574803
NARR_3HR	03/17/2014	15:00:00	0.0003075787401574803
NARR_3HR	03/17/2014	18:00:00	0.0
NARR_3HR	03/17/2014	21:00:00	0.0
NARR_3HR	03/18/2014	00:00:00	0.0
NARR_3HR	03/18/2014	03:00:00	0.0
NARR_3HR	03/18/2014	06:00:00	0.0
NARR_3HR	03/18/2014	09:00:00	0.0
NARR_3HR	03/18/2014	12:00:00	0.0
NARR_3HR	03/18/2014	15:00:00	0.0
NARR_3HR	03/18/2014	18:00:00	0.0
NARR_3HR	03/18/2014	21:00:00	0.0
NARR_3HR	03/19/2014	00:00:00	0.0
NARR_3HR	03/19/2014	03:00:00	0.0
NARR_3HR	03/19/2014	06:00:00	5.7246262852953176e-05
NARR_3HR	03/19/2014	09:00:00	0.0
NARR_3HR	03/19/2014	12:00:00	0.0
NARR_3HR	03/19/2014	15:00:00	0.0
NARR_3HR	03/19/2014	18:00:00	0.023683562992125987
NARR_3HR	03/19/2014	21:00:00	0.16455462598425197
NARR_3HR	03/20/2014	00:00:00	0.5311884842519685
NARR_3HR	03/20/2014	03:00:00	0.1125738188976378
NARR_3HR	03/20/2014	06:00:00	0.0021530511811023623
NARR_3HR	03/20/2014	09:00:00	0.007074311023622048
NARR_3HR	03/20/2014	12:00:00	0.0
NARR_3HR	03/20/2014	15:00:00	0.0
NARR_3HR	03/20/2014	18:00:00	0.0
NARR_3HR	03/20/2014	21:00:00	0.0
NARR_3HR	03/21/2014	00:00:00	0.0
NARR_3HR	03/21/2014	03:00:00	0.0
NARR_3HR	03/21/2014	06:00:00	0.0
NARR_3HR	03/21/2014	09:00:00	0.0
NARR_3HR	03/21/2014	12:00:00	0.0
NARR_3HR	03/21/2014	15:00:00	0.0
NARR_3HR	03/21/2014	18:00:00	0.0