[TITLE]
;; No Green Infrastructure
;; 482019801001 Texas, Harris County
;; Tract: 9801	Block Group: 001

[OPTIONS]
;;Option		Value
FLOW_UNITS		CFS
INFILTRATION		GREEN_AMPT
FLOW_ROUTING		KINWAVE
LINK_OFFSETS		DEPTH
MIN_SLOPE		0
ALLOW_PONDING		NO
SKIP_STEADY_STATE	NO

START_DATE		01/01/2014
START_TIME		00:00:00
REPORT_START_DATE	01/01/2014
REPORT_START_TIME	00:00:00
END_DATE		12/31/2014
END_TIME		23:59:59
SWEEP_START		01/01
SWEEP_END		12/31
DRY_DAYS		0
REPORT_STEP		01:00:00
WET_STEP		00:06:00
DRY_STEP		00:06:00
ROUTING_STEP		00:01:00

INERTIAL_DAMPING	PARTIAL
NORMAL_FLOW_LIMITED	BOTH
FORCE_MAIN_EQUATION	H-W
VARIABLE_STEP		0.75
LENGTHENING_STEP	0
MIN_SURFAREA		12.557
MAX_TRIALS		8
HEAD_TOLERANCE		0.005
SYS_FLOW_TOL		5
LAT_FLOW_TOL		5
MINIMUM_STEP		0.5
THREADS			1

[EVAPORATION]
;;DATA	Source	Parameters
;;------------------------
MONTHLY	0.05610865615369081	0.07987345856046676	0.10983210209350584	0.15233290255131723	0.16458829996724128	0.1804306411367893	0.1725120236972332	0.1456664995889425	0.12345848217206003	0.09539296765840054	0.06698161929975747	0.053892835861146446	
DRY_ONLY	YES

[RAINGAGES]
;;Name	Format	Interval	SCF	Source
;;--------------------------------------------
RainGage2	VOLUME	03:00:00	1	TIMESERIES NARR_3HR

[SUBCATCHMENTS]
;;Name	Rain Gage	Outlet	Area	%Imperv	Width	%Slope	CurbLen	SnowPack
;;------------------------------------------------------------------------------
Subcatch1	RainGage2	Outfall1	7273.41212250107	43.009753860266	2112198.88037431	2.35225510597229	0
Subcatch2	RainGage2	Outfall1	0	100	0	0	0
Subcatch3	Raingage2	Outfall1	0.000	100	0	0	0
Subcatch4	RainGage2	Cisterns	0.000	100	0	0	0

[SUBAREAS]
;;Subcatch	N-Imperv	N-Perv	S-Imperv	S-Perv	PctZero	RouteTo	PctRouted
;;---------------------------------------------------------------------------------------
Subcatch1	0.01	.310724762402447	0.05	.22576775905564	0	OUTLET
Subcatch2	0	0	0	0	0	OUTLET
Subcatch3	0	0	0	6	0	OUTLET
Subcatch4	0	0	0	0	0	OUTLET

[INFILTRATION]
;;Subcatchment	Suction	Ksat	IMD
;;------------------------------------------------------
Subcatch1	4.42210674324817	.413204785220664	.412179447449541
Subcatch2	4.42210674324817	.413204785220664	.412179447449541
Subcatch3	4.42210674324817	.413204785220664	.412179447449541
Subcatch4	4.42210674324817	.413204785220664	.412179447449541

[LID_CONTROLS]
;;Name	Type/Layer	Parameters
;;--------------------------------------------
RainGarden	BC
RainGarden	SURFACE	6	0	0	0	0
RainGarden	SOIL	12	0.45	0.1	0.05	10	10	1.6
RainGarden	STORAGE	0	0	0.4	0
RainGarden	DRAIN	0	0.5	6	6

GreenRoof	BC
GreenRoof	SURFACE	0	0	0	0	0
GreenRoof	SOIL	4	0.45	0.1	0.05	10	10	1.6
GreenRoof	STORAGE	3	0.75	0	0
GreenRoof	DRAIN	10	0.5	0	0

StreetPlanter	BC
StreetPlanter	SURFACE	6	0	0	0	0
StreetPlanter	SOIL	18	0.45	0.1	0.05	10	10	1.6
StreetPlanter	STORAGE	12	0.75	0.108	0

PorousPavement	PP
PorousPavement	SURFACE	0.05	0	0.01	3	0
PorousPavement	PAVEMENT	6	0.12	0	400	0
PorousPavement	STORAGE	18	0.75	0.108	0

[LID_USAGE]
;;Subcatchment	LID	Process	Number	Area	Width	InitSat	FromImp	ToPerv	RptFile	DrainTo

[JUNCTIONS]
;;Name	Elevation	MaxDepth	InitDepth	SurDepth	Aponded
;;---------------------------------------------------------
Cisterns	0	0	0	0	0

[OUTFALLS]
;;Name	Elevation	Type	Stage	Data	Gated	Routed	To
;;----------------------------------------------------------------------------
Outfall1	0	FREE	NO

[STORAGE]

[CONDUITS]

[XSECTIONS]

[TIMESERIES]
;;Name	Date	Time	Value
;;---------------------------
NARR_3HR	01/01/2014	00:00:00	0.0003075787401574803
NARR_3HR	01/01/2014	03:00:00	0.0003075787401574803
NARR_3HR	01/01/2014	06:00:00	0.0003075787401574803
NARR_3HR	01/01/2014	09:00:00	0.0003075787401574803
NARR_3HR	01/01/2014	12:00:00	0.0
NARR_3HR	01/01/2014	15:00:00	0.0
NARR_3HR	01/01/2014	18:00:00	0.0
NARR_3HR	01/01/2014	21:00:00	0.0
NARR_3HR	01/02/2014	00:00:00	0.0003075787401574803
NARR_3HR	01/02/2014	03:00:00	0.0003075787401574803
NARR_3HR	01/02/2014	06:00:00	0.0003075787401574803
NARR_3HR	01/02/2014	09:00:00	0.0
NARR_3HR	01/02/2014	12:00:00	0.0
NARR_3HR	01/02/2014	15:00:00	0.0
NARR_3HR	01/02/2014	18:00:00	0.0
NARR_3HR	01/02/2014	21:00:00	0.0
NARR_3HR	01/03/2014	00:00:00	0.0
NARR_3HR	01/03/2014	03:00:00	0.0
NARR_3HR	01/03/2014	06:00:00	0.0
NARR_3HR	01/03/2014	09:00:00	0.0
NARR_3HR	01/03/2014	12:00:00	0.0
NARR_3HR	01/03/2014	15:00:00	0.0
NARR_3HR	01/03/2014	18:00:00	0.0
NARR_3HR	01/03/2014	21:00:00	0.0
NARR_3HR	01/04/2014	00:00:00	0.0
NARR_3HR	01/04/2014	03:00:00	0.0
NARR_3HR	01/04/2014	06:00:00	0.0
NARR_3HR	01/04/2014	09:00:00	0.0
NARR_3HR	01/04/2014	12:00:00	0.0
NARR_3HR	01/04/2014	15:00:00	0.0
NARR_3HR	01/04/2014	18:00:00	0.0
NARR_3HR	01/04/2014	21:00:00	0.0003075787401574803
NARR_3HR	01/05/2014	00:00:00	0.0003075787401574803
NARR_3HR	01/05/2014	03:00:00	0.0003075787401574803
NARR_3HR	01/05/2014	06:00:00	0.0003075787401574803
NARR_3HR	01/05/2014	09:00:00	0.004613681102362205
NARR_3HR	01/05/2014	12:00:00	0.03973217930380754
NARR_3HR	01/05/2014	15:00:00	0.0021530511811023623
NARR_3HR	01/05/2014	18:00:00	0.0
NARR_3HR	01/05/2014	21:00:00	0.0012303149606299212
NARR_3HR	01/06/2014	00:00:00	0.0
NARR_3HR	01/06/2014	03:00:00	0.0
NARR_3HR	01/06/2014	06:00:00	0.0
NARR_3HR	01/06/2014	09:00:00	0.0
NARR_3HR	01/06/2014	12:00:00	0.0003075787401574803
NARR_3HR	01/06/2014	15:00:00	0.0
NARR_3HR	01/06/2014	18:00:00	0.0
NARR_3HR	01/06/2014	21:00:00	0.0
NARR_3HR	01/07/2014	00:00:00	0.0
NARR_3HR	01/07/2014	03:00:00	2.4338465506636252e-05
NARR_3HR	01/07/2014	06:00:00	0.0
NARR_3HR	01/07/2014	09:00:00	0.0
NARR_3HR	01/07/2014	12:00:00	0.0
NARR_3HR	01/07/2014	15:00:00	0.0
NARR_3HR	01/07/2014	18:00:00	0.0
NARR_3HR	01/07/2014	21:00:00	0.0
NARR_3HR	01/08/2014	00:00:00	0.0
NARR_3HR	01/08/2014	03:00:00	0.0
NARR_3HR	01/08/2014	06:00:00	0.0003075787401574803
NARR_3HR	01/08/2014	09:00:00	0.0030757874015748033
NARR_3HR	01/08/2014	12:00:00	0.0003075787401574803
NARR_3HR	01/08/2014	15:00:00	0.0003075787401574803
NARR_3HR	01/08/2014	18:00:00	0.0012303149606299212
NARR_3HR	01/08/2014	21:00:00	0.0012303149606299212
NARR_3HR	01/09/2014	00:00:00	0.0006151574803149606
NARR_3HR	01/09/2014	03:00:00	0.0024606299212598425
NARR_3HR	01/09/2014	06:00:00	0.004613681102362205
NARR_3HR	01/09/2014	09:00:00	0.004921259842519685
NARR_3HR	01/09/2014	12:00:00	0.1688607283464567
NARR_3HR	01/09/2014	15:00:00	0.06859005905511811
NARR_3HR	01/09/2014	18:00:00	0.029835137795275593
NARR_3HR	01/09/2014	21:00:00	0.06705216535433071
NARR_3HR	01/10/2014	00:00:00	0.0
NARR_3HR	01/10/2014	03:00:00	0.0012303149606299212
NARR_3HR	01/10/2014	06:00:00	0.004613681102362205
NARR_3HR	01/10/2014	09:00:00	0.0006151574803149606
NARR_3HR	01/10/2014	12:00:00	0.0003075787401574803
NARR_3HR	01/10/2014	15:00:00	0.0
NARR_3HR	01/10/2014	18:00:00	0.004613681102362205
NARR_3HR	01/10/2014	21:00:00	0.004348242142069058
NARR_3HR	01/11/2014	00:00:00	0.0
NARR_3HR	01/11/2014	03:00:00	0.00033607944758154277
NARR_3HR	01/11/2014	06:00:00	0.0012303149606299212
NARR_3HR	01/11/2014	09:00:00	0.0021530511811023623
NARR_3HR	01/11/2014	12:00:00	0.0003075787401574803
NARR_3HR	01/11/2014	15:00:00	0.0
NARR_3HR	01/11/2014	18:00:00	0.0
NARR_3HR	01/11/2014	21:00:00	0.0
NARR_3HR	01/12/2014	00:00:00	0.0
NARR_3HR	01/12/2014	03:00:00	0.0
NARR_3HR	01/12/2014	06:00:00	0.0
NARR_3HR	01/12/2014	09:00:00	0.0
NARR_3HR	01/12/2014	12:00:00	0.0
NARR_3HR	01/12/2014	15:00:00	0.0
NARR_3HR	01/12/2014	18:00:00	0.0
NARR_3HR	01/12/2014	21:00:00	0.01845472440944882
NARR_3HR	01/13/2014	00:00:00	0.0
NARR_3HR	01/13/2014	03:00:00	0.0
NARR_3HR	01/13/2014	06:00:00	0.054749015748031496
NARR_3HR	01/13/2014	09:00:00	0.07750984251968504
NARR_3HR	01/13/2014	12:00:00	0.002768208661417323
NARR_3HR	01/13/2014	15:00:00	0.0
NARR_3HR	01/13/2014	18:00:00	0.0
NARR_3HR	01/13/2014	21:00:00	0.0
NARR_3HR	01/14/2014	00:00:00	0.0
NARR_3HR	01/14/2014	03:00:00	0.0
NARR_3HR	01/14/2014	06:00:00	0.0
NARR_3HR	01/14/2014	09:00:00	0.0
NARR_3HR	01/14/2014	12:00:00	0.0
NARR_3HR	01/14/2014	15:00:00	7.380108077695051e-05
NARR_3HR	01/14/2014	18:00:00	0.0
NARR_3HR	01/14/2014	21:00:00	0.0
NARR_3HR	01/15/2014	00:00:00	0.00013758962805287577
NARR_3HR	01/15/2014	03:00:00	0.0
NARR_3HR	01/15/2014	06:00:00	0.0
NARR_3HR	01/15/2014	09:00:00	0.0
NARR_3HR	01/15/2014	12:00:00	0.0
NARR_3HR	01/15/2014	15:00:00	0.0
NARR_3HR	01/15/2014	18:00:00	0.0
NARR_3HR	01/15/2014	21:00:00	0.0
NARR_3HR	01/16/2014	00:00:00	0.0
NARR_3HR	01/16/2014	03:00:00	0.0
NARR_3HR	01/16/2014	06:00:00	0.0
NARR_3HR	01/16/2014	09:00:00	0.0
NARR_3HR	01/16/2014	12:00:00	0.0
NARR_3HR	01/16/2014	15:00:00	0.0
NARR_3HR	01/16/2014	18:00:00	0.0
NARR_3HR	01/16/2014	21:00:00	0.0
NARR_3HR	01/17/2014	00:00:00	0.0
NARR_3HR	01/17/2014	03:00:00	0.0
NARR_3HR	01/17/2014	06:00:00	0.0
NARR_3HR	01/17/2014	09:00:00	0.0
NARR_3HR	01/17/2014	12:00:00	0.0
NARR_3HR	01/17/2014	15:00:00	0.0
NARR_3HR	01/17/2014	18:00:00	0.0
NARR_3HR	01/17/2014	21:00:00	0.0
NARR_3HR	01/18/2014	00:00:00	0.0
NARR_3HR	01/18/2014	03:00:00	0.0
NARR_3HR	01/18/2014	06:00:00	0.0
NARR_3HR	01/18/2014	09:00:00	0.0
NARR_3HR	01/18/2014	12:00:00	0.0
NARR_3HR	01/18/2014	15:00:00	0.0
NARR_3HR	01/18/2014	18:00:00	0.0
NARR_3HR	01/18/2014	21:00:00	0.0
NARR_3HR	01/19/2014	00:00:00	5.977726944788235e-05
NARR_3HR	01/19/2014	03:00:00	0.0
NARR_3HR	01/19/2014	06:00:00	0.0
NARR_3HR	01/19/2014	09:00:00	0.0003075787401574803
NARR_3HR	01/19/2014	12:00:00	0.0
NARR_3HR	01/19/2014	15:00:00	0.0
NARR_3HR	01/19/2014	18:00:00	0.0
NARR_3HR	01/19/2014	21:00:00	0.0
NARR_3HR	01/20/2014	00:00:00	0.0
NARR_3HR	01/20/2014	03:00:00	0.0
NARR_3HR	01/20/2014	06:00:00	0.0
NARR_3HR	01/20/2014	09:00:00	0.0
NARR_3HR	01/20/2014	12:00:00	0.0
NARR_3HR	01/20/2014	15:00:00	0.0
NARR_3HR	01/20/2014	18:00:00	0.0
NARR_3HR	01/20/2014	21:00:00	0.0
NARR_3HR	01/21/2014	00:00:00	0.0
NARR_3HR	01/21/2014	03:00:00	0.0
NARR_3HR	01/21/2014	06:00:00	0.0
NARR_3HR	01/21/2014	09:00:00	0.0
NARR_3HR	01/21/2014	12:00:00	0.0
NARR_3HR	01/21/2014	15:00:00	0.0
NARR_3HR	01/21/2014	18:00:00	0.0
NARR_3HR	01/21/2014	21:00:00	0.0
NARR_3HR	01/22/2014	00:00:00	0.0
NARR_3HR	01/22/2014	03:00:00	5.187613405580596e-05
NARR_3HR	01/22/2014	06:00:00	0.0
NARR_3HR	01/22/2014	09:00:00	0.0
NARR_3HR	01/22/2014	12:00:00	0.0
NARR_3HR	01/22/2014	15:00:00	0.0
NARR_3HR	01/22/2014	18:00:00	0.0
NARR_3HR	01/22/2014	21:00:00	0.0
NARR_3HR	01/23/2014	00:00:00	0.0
NARR_3HR	01/23/2014	03:00:00	0.0003075787401574803
NARR_3HR	01/23/2014	06:00:00	0.0003075787401574803
NARR_3HR	01/23/2014	09:00:00	0.0006151574803149606
NARR_3HR	01/23/2014	12:00:00	0.0
NARR_3HR	01/23/2014	15:00:00	0.003998523622047244
NARR_3HR	01/23/2014	18:00:00	0.07443405511811024
NARR_3HR	01/23/2014	21:00:00	0.047982283464566934
NARR_3HR	01/24/2014	00:00:00	0.04521407480314961
NARR_3HR	01/24/2014	03:00:00	0.09473425196850395
NARR_3HR	01/24/2014	06:00:00	0.04952017716535433
NARR_3HR	01/24/2014	09:00:00	0.01691683070866142
NARR_3HR	01/24/2014	12:00:00	0.004306102362204725
NARR_3HR	01/24/2014	15:00:00	0.0006151574803149606
NARR_3HR	01/24/2014	18:00:00	0.02891240157480315
NARR_3HR	01/24/2014	21:00:00	0.007997047244094488
NARR_3HR	01/25/2014	00:00:00	0.0
NARR_3HR	01/25/2014	03:00:00	0.0
NARR_3HR	01/25/2014	06:00:00	0.0
NARR_3HR	01/25/2014	09:00:00	0.0
NARR_3HR	01/25/2014	12:00:00	0.0
NARR_3HR	01/25/2014	15:00:00	0.003998523622047244
NARR_3HR	01/25/2014	18:00:00	0.0
NARR_3HR	01/25/2014	21:00:00	0.0
NARR_3HR	01/26/2014	00:00:00	0.0
NARR_3HR	01/26/2014	03:00:00	0.0
NARR_3HR	01/26/2014	06:00:00	0.0
NARR_3HR	01/26/2014	09:00:00	0.0
NARR_3HR	01/26/2014	12:00:00	0.0
NARR_3HR	01/26/2014	15:00:00	0.0
NARR_3HR	01/26/2014	18:00:00	0.0
NARR_3HR	01/26/2014	21:00:00	0.0
NARR_3HR	01/27/2014	00:00:00	0.0003075787401574803
NARR_3HR	01/27/2014	03:00:00	0.0
NARR_3HR	01/27/2014	06:00:00	0.007997047244094488
NARR_3HR	01/27/2014	09:00:00	0.0080101532260264
NARR_3HR	01/27/2014	12:00:00	0.0
NARR_3HR	01/27/2014	15:00:00	2.142129920599029e-05
NARR_3HR	01/27/2014	18:00:00	0.0
NARR_3HR	01/27/2014	21:00:00	0.0
NARR_3HR	01/28/2014	00:00:00	0.0006151574803149606
NARR_3HR	01/28/2014	03:00:00	0.0003075787401574803
NARR_3HR	01/28/2014	06:00:00	0.0
NARR_3HR	01/28/2014	09:00:00	0.0
NARR_3HR	01/28/2014	12:00:00	0.0006151574803149606
NARR_3HR	01/28/2014	15:00:00	0.007381889763779528
NARR_3HR	01/28/2014	18:00:00	0.0015378937007874017
NARR_3HR	01/28/2014	21:00:00	0.0003075787401574803
NARR_3HR	01/29/2014	00:00:00	0.0006151574803149606
NARR_3HR	01/29/2014	03:00:00	0.0
NARR_3HR	01/29/2014	06:00:00	0.0
NARR_3HR	01/29/2014	09:00:00	0.0
NARR_3HR	01/29/2014	12:00:00	0.0
NARR_3HR	01/29/2014	15:00:00	0.011687992125984252
NARR_3HR	01/29/2014	18:00:00	0.005228838582677166
NARR_3HR	01/29/2014	21:00:00	0.0
NARR_3HR	01/30/2014	00:00:00	0.0
NARR_3HR	01/30/2014	03:00:00	0.0
NARR_3HR	01/30/2014	06:00:00	0.0
NARR_3HR	01/30/2014	09:00:00	5.568869001283421e-05
NARR_3HR	01/30/2014	12:00:00	0.0
NARR_3HR	01/30/2014	15:00:00	0.0
NARR_3HR	01/30/2014	18:00:00	0.0
NARR_3HR	01/30/2014	21:00:00	0.0
NARR_3HR	01/31/2014	00:00:00	0.0003075787401574803
NARR_3HR	01/31/2014	03:00:00	0.0006151574803149606
NARR_3HR	01/31/2014	06:00:00	0.0003075787401574803
NARR_3HR	01/31/2014	09:00:00	0.0024606299212598425
NARR_3HR	01/31/2014	12:00:00	0.00034043800056450014
NARR_3HR	01/31/2014	15:00:00	3.794420833193411e-05
NARR_3HR	01/31/2014	18:00:00	0.0
NARR_3HR	01/31/2014	21:00:00	0.0
NARR_3HR	02/01/2014	00:00:00	0.0006151574803149606
NARR_3HR	02/01/2014	03:00:00	0.0003075787401574803
NARR_3HR	02/01/2014	06:00:00	0.0
NARR_3HR	02/01/2014	09:00:00	0.004921259842519685
NARR_3HR	02/01/2014	12:00:00	0.0003075787401574803
NARR_3HR	02/01/2014	15:00:00	0.0
NARR_3HR	02/01/2014	18:00:00	0.0
NARR_3HR	02/01/2014	21:00:00	0.000922736220472441
NARR_3HR	02/02/2014	00:00:00	0.0
NARR_3HR	02/02/2014	03:00:00	0.004921259842519685
NARR_3HR	02/02/2014	06:00:00	0.010457677165354331
NARR_3HR	02/02/2014	09:00:00	0.03844734251968504
NARR_3HR	02/02/2014	12:00:00	0.03198818897637795
NARR_3HR	02/02/2014	15:00:00	0.14609990157480315
NARR_3HR	02/02/2014	18:00:00	0.02860482283464567
NARR_3HR	02/02/2014	21:00:00	0.0639763779527559
NARR_3HR	02/03/2014	00:00:00	0.0033833661417322835
NARR_3HR	02/03/2014	03:00:00	0.003998523622047244
NARR_3HR	02/03/2014	06:00:00	0.004921259842519685
NARR_3HR	02/03/2014	09:00:00	0.005843996062992126
NARR_3HR	02/03/2014	12:00:00	0.0
NARR_3HR	02/03/2014	15:00:00	0.0
NARR_3HR	02/03/2014	18:00:00	4.2286270672059434e-05
NARR_3HR	02/03/2014	21:00:00	0.000922736220472441
NARR_3HR	02/04/2014	00:00:00	0.0
NARR_3HR	02/04/2014	03:00:00	0.0
NARR_3HR	02/04/2014	06:00:00	0.002768208661417323
NARR_3HR	02/04/2014	09:00:00	0.01968503937007874
NARR_3HR	02/04/2014	12:00:00	0.09042814960629922
NARR_3HR	02/04/2014	15:00:00	0.05790594994552493
NARR_3HR	02/04/2014	18:00:00	0.03937007874015748
NARR_3HR	02/04/2014	21:00:00	0.0
NARR_3HR	02/05/2014	00:00:00	0.0
NARR_3HR	02/05/2014	03:00:00	0.0
NARR_3HR	02/05/2014	06:00:00	0.0
NARR_3HR	02/05/2014	09:00:00	0.0
NARR_3HR	02/05/2014	12:00:00	0.0006151574803149606
NARR_3HR	02/05/2014	15:00:00	0.0006151574803149606
NARR_3HR	02/05/2014	18:00:00	0.0003075787401574803
NARR_3HR	02/05/2014	21:00:00	0.0003075787401574803
NARR_3HR	02/06/2014	00:00:00	0.0003075787401574803
NARR_3HR	02/06/2014	03:00:00	0.0003075787401574803
NARR_3HR	02/06/2014	06:00:00	0.0004256511928410981
NARR_3HR	02/06/2014	09:00:00	0.0
NARR_3HR	02/06/2014	12:00:00	0.004306102362204725
NARR_3HR	02/06/2014	15:00:00	0.0003075787401574803
NARR_3HR	02/06/2014	18:00:00	0.0012303149606299212
NARR_3HR	02/06/2014	21:00:00	0.0
NARR_3HR	02/07/2014	00:00:00	0.0
NARR_3HR	02/07/2014	03:00:00	1.0912460604990562e-05
NARR_3HR	02/07/2014	06:00:00	0.0
NARR_3HR	02/07/2014	09:00:00	0.0
NARR_3HR	02/07/2014	12:00:00	0.0001136738509966398
NARR_3HR	02/07/2014	15:00:00	0.0003075787401574803
NARR_3HR	02/07/2014	18:00:00	0.000922736220472441
NARR_3HR	02/07/2014	21:00:00	0.0
NARR_3HR	02/08/2014	00:00:00	0.0024606299212598425
NARR_3HR	02/08/2014	03:00:00	0.004306102362204725
NARR_3HR	02/08/2014	06:00:00	0.0030757874015748033
NARR_3HR	02/08/2014	09:00:00	0.001845472440944882
NARR_3HR	02/08/2014	12:00:00	0.0003075787401574803
NARR_3HR	02/08/2014	15:00:00	0.0
NARR_3HR	02/08/2014	18:00:00	0.0
NARR_3HR	02/08/2014	21:00:00	0.0
NARR_3HR	02/09/2014	00:00:00	0.0003075787401574803
NARR_3HR	02/09/2014	03:00:00	0.0003075787401574803
NARR_3HR	02/09/2014	06:00:00	0.0003075787401574803
NARR_3HR	02/09/2014	09:00:00	0.004613681102362205
NARR_3HR	02/09/2014	12:00:00	0.0003075787401574803
NARR_3HR	02/09/2014	15:00:00	0.0
NARR_3HR	02/09/2014	18:00:00	0.0
NARR_3HR	02/09/2014	21:00:00	0.002768208661417323
NARR_3HR	02/10/2014	00:00:00	0.0
NARR_3HR	02/10/2014	03:00:00	0.0
NARR_3HR	02/10/2014	06:00:00	0.03137303149606299
NARR_3HR	02/10/2014	09:00:00	0.041215551181102365
NARR_3HR	02/10/2014	12:00:00	0.08212352362204725
NARR_3HR	02/10/2014	15:00:00	0.09534940944881891
NARR_3HR	02/10/2014	18:00:00	0.11349655511811024
NARR_3HR	02/10/2014	21:00:00	0.02614419291338583
NARR_3HR	02/11/2014	00:00:00	0.024913877952755906
NARR_3HR	02/11/2014	03:00:00	0.0390625
NARR_3HR	02/11/2014	06:00:00	0.030757874015748032
NARR_3HR	02/11/2014	09:00:00	0.043368602362204724
NARR_3HR	02/11/2014	12:00:00	0.0003075787401574803
NARR_3HR	02/11/2014	15:00:00	0.000922736220472441
NARR_3HR	02/11/2014	18:00:00	0.0006427304217899878
NARR_3HR	02/11/2014	21:00:00	0.03168061023622047
NARR_3HR	02/12/2014	00:00:00	0.01630167322834646
NARR_3HR	02/12/2014	03:00:00	0.03198818897637795
NARR_3HR	02/12/2014	06:00:00	0.020607775590551183
NARR_3HR	02/12/2014	09:00:00	0.006151574803149607
NARR_3HR	02/12/2014	12:00:00	0.0
NARR_3HR	02/12/2014	15:00:00	0.001898139392531763
NARR_3HR	02/12/2014	18:00:00	0.0006151574803149606
NARR_3HR	02/12/2014	21:00:00	0.0
NARR_3HR	02/13/2014	00:00:00	0.0
NARR_3HR	02/13/2014	03:00:00	0.0
NARR_3HR	02/13/2014	06:00:00	0.0
NARR_3HR	02/13/2014	09:00:00	0.0
NARR_3HR	02/13/2014	12:00:00	0.0
NARR_3HR	02/13/2014	15:00:00	0.0
NARR_3HR	02/13/2014	18:00:00	0.0
NARR_3HR	02/13/2014	21:00:00	0.0
NARR_3HR	02/14/2014	00:00:00	0.0
NARR_3HR	02/14/2014	03:00:00	0.0
NARR_3HR	02/14/2014	06:00:00	0.0
NARR_3HR	02/14/2014	09:00:00	0.0
NARR_3HR	02/14/2014	12:00:00	0.0
NARR_3HR	02/14/2014	15:00:00	0.0
NARR_3HR	02/14/2014	18:00:00	0.0
NARR_3HR	02/14/2014	21:00:00	0.0
NARR_3HR	02/15/2014	00:00:00	0.0
NARR_3HR	02/15/2014	03:00:00	0.0
NARR_3HR	02/15/2014	06:00:00	0.0
NARR_3HR	02/15/2014	09:00:00	0.0
NARR_3HR	02/15/2014	12:00:00	0.0
NARR_3HR	02/15/2014	15:00:00	0.0
NARR_3HR	02/15/2014	18:00:00	0.0
NARR_3HR	02/15/2014	21:00:00	0.0
NARR_3HR	02/16/2014	00:00:00	0.0
NARR_3HR	02/16/2014	03:00:00	0.0
NARR_3HR	02/16/2014	06:00:00	0.000922736220472441
NARR_3HR	02/16/2014	09:00:00	0.003998523622047244
NARR_3HR	02/16/2014	12:00:00	0.0003075787401574803
NARR_3HR	02/16/2014	15:00:00	0.0
NARR_3HR	02/16/2014	18:00:00	3.404475337877048e-05
NARR_3HR	02/16/2014	21:00:00	0.0
NARR_3HR	02/17/2014	00:00:00	0.0
NARR_3HR	02/17/2014	03:00:00	0.0003075787401574803
NARR_3HR	02/17/2014	06:00:00	0.0003075787401574803
NARR_3HR	02/17/2014	09:00:00	0.0006151574803149606
NARR_3HR	02/17/2014	12:00:00	0.0
NARR_3HR	02/17/2014	15:00:00	0.0
NARR_3HR	02/17/2014	18:00:00	0.0
NARR_3HR	02/17/2014	21:00:00	0.0
NARR_3HR	02/18/2014	00:00:00	0.0
NARR_3HR	02/18/2014	03:00:00	0.0
NARR_3HR	02/18/2014	06:00:00	0.0033833661417322835
NARR_3HR	02/18/2014	09:00:00	0.003690944881889764
NARR_3HR	02/18/2014	12:00:00	0.0
NARR_3HR	02/18/2014	15:00:00	0.0
NARR_3HR	02/18/2014	18:00:00	0.0
NARR_3HR	02/18/2014	21:00:00	0.0
NARR_3HR	02/19/2014	00:00:00	0.0
NARR_3HR	02/19/2014	03:00:00	0.0
NARR_3HR	02/19/2014	06:00:00	0.007074311023622048
NARR_3HR	02/19/2014	09:00:00	0.0016555392484026632
NARR_3HR	02/19/2014	12:00:00	0.0
NARR_3HR	02/19/2014	15:00:00	0.0
NARR_3HR	02/19/2014	18:00:00	0.0
NARR_3HR	02/19/2014	21:00:00	0.0
NARR_3HR	02/20/2014	00:00:00	0.0
NARR_3HR	02/20/2014	03:00:00	0.000922736220472441
NARR_3HR	02/20/2014	06:00:00	0.0015378937007874017
NARR_3HR	02/20/2014	09:00:00	0.004921259842519685
NARR_3HR	02/20/2014	12:00:00	0.0
NARR_3HR	02/20/2014	15:00:00	0.001845472440944882
NARR_3HR	02/20/2014	18:00:00	0.035679133858267716
NARR_3HR	02/20/2014	21:00:00	0.25744340551181105
NARR_3HR	02/21/2014	00:00:00	0.013537972461520218
NARR_3HR	02/21/2014	03:00:00	0.00011759875232251141
NARR_3HR	02/21/2014	06:00:00	9.321086072018298e-07
NARR_3HR	02/21/2014	09:00:00	0.0
NARR_3HR	02/21/2014	12:00:00	0.0
NARR_3HR	02/21/2014	15:00:00	0.0
NARR_3HR	02/21/2014	18:00:00	0.0
NARR_3HR	02/21/2014	21:00:00	0.0
NARR_3HR	02/22/2014	00:00:00	0.0
NARR_3HR	02/22/2014	03:00:00	0.0
NARR_3HR	02/22/2014	06:00:00	0.0
NARR_3HR	02/22/2014	09:00:00	0.0
NARR_3HR	02/22/2014	12:00:00	0.0
NARR_3HR	02/22/2014	15:00:00	0.0
NARR_3HR	02/22/2014	18:00:00	0.0
NARR_3HR	02/22/2014	21:00:00	0.0
NARR_3HR	02/23/2014	00:00:00	3.563240170478821e-05
NARR_3HR	02/23/2014	03:00:00	0.0
NARR_3HR	02/23/2014	06:00:00	0.0003075787401574803
NARR_3HR	02/23/2014	09:00:00	0.004613681102362205
NARR_3HR	02/23/2014	12:00:00	0.015994094488188976
NARR_3HR	02/23/2014	15:00:00	0.0012303149606299212
NARR_3HR	02/23/2014	18:00:00	0.0003075787401574803
NARR_3HR	02/23/2014	21:00:00	0.0003075787401574803
NARR_3HR	02/24/2014	00:00:00	0.0
NARR_3HR	02/24/2014	03:00:00	0.0
NARR_3HR	02/24/2014	06:00:00	0.0
NARR_3HR	02/24/2014	09:00:00	0.000922736220472441
NARR_3HR	02/24/2014	12:00:00	0.0003075787401574803
NARR_3HR	02/24/2014	15:00:00	0.0
NARR_3HR	02/24/2014	18:00:00	7.69163822887216e-05
NARR_3HR	02/24/2014	21:00:00	0.0
NARR_3HR	02/25/2014	00:00:00	0.0
NARR_3HR	02/25/2014	03:00:00	0.0030757874015748033
NARR_3HR	02/25/2014	06:00:00	0.007997047244094488
NARR_3HR	02/25/2014	09:00:00	0.004613681102362205
NARR_3HR	02/25/2014	12:00:00	0.00830462598425197
NARR_3HR	02/25/2014	15:00:00	0.0
NARR_3HR	02/25/2014	18:00:00	0.0
NARR_3HR	02/25/2014	21:00:00	0.06982037401574803
NARR_3HR	02/26/2014	00:00:00	0.27159202755905515
NARR_3HR	02/26/2014	03:00:00	0.2525221456692914
NARR_3HR	02/26/2014	06:00:00	0.28051181102362205
NARR_3HR	02/26/2014	09:00:00	0.3724778543307087
NARR_3HR	02/26/2014	12:00:00	0.0012303149606299212
NARR_3HR	02/26/2014	15:00:00	0.0003075787401574803
NARR_3HR	02/26/2014	18:00:00	0.06459153543307088
NARR_3HR	02/26/2014	21:00:00	0.061208169291338585
NARR_3HR	02/27/2014	00:00:00	0.0003075787401574803
NARR_3HR	02/27/2014	03:00:00	0.0
NARR_3HR	02/27/2014	06:00:00	0.0
NARR_3HR	02/27/2014	09:00:00	0.0
NARR_3HR	02/27/2014	12:00:00	0.0
NARR_3HR	02/27/2014	15:00:00	0.0
NARR_3HR	02/27/2014	18:00:00	0.0
NARR_3HR	02/27/2014	21:00:00	0.0
NARR_3HR	02/28/2014	00:00:00	0.0
NARR_3HR	02/28/2014	03:00:00	0.0
NARR_3HR	02/28/2014	06:00:00	0.0
NARR_3HR	02/28/2014	09:00:00	0.0006151574803149606
NARR_3HR	02/28/2014	12:00:00	0.0
NARR_3HR	02/28/2014	15:00:00	0.0033833661417322835
NARR_3HR	02/28/2014	18:00:00	0.0
NARR_3HR	02/28/2014	21:00:00	0.0
NARR_3HR	03/01/2014	00:00:00	0.0
NARR_3HR	03/01/2014	03:00:00	0.000922736220472441
NARR_3HR	03/01/2014	06:00:00	0.0007527663306457791
NARR_3HR	03/01/2014	09:00:00	0.0030757874015748033
NARR_3HR	03/01/2014	12:00:00	0.0003075787401574803
NARR_3HR	03/01/2014	15:00:00	0.0
NARR_3HR	03/01/2014	18:00:00	0.0
NARR_3HR	03/01/2014	21:00:00	0.0
NARR_3HR	03/02/2014	00:00:00	0.0
NARR_3HR	03/02/2014	03:00:00	0.000922736220472441
NARR_3HR	03/02/2014	06:00:00	0.001845472440944882
NARR_3HR	03/02/2014	09:00:00	0.01630167322834646
NARR_3HR	03/02/2014	12:00:00	0.0012303149606299212
NARR_3HR	03/02/2014	15:00:00	0.0
NARR_3HR	03/02/2014	18:00:00	0.0
NARR_3HR	03/02/2014	21:00:00	0.005843996062992126
NARR_3HR	03/03/2014	00:00:00	0.043061023622047244
NARR_3HR	03/03/2014	03:00:00	0.01814714566929134
NARR_3HR	03/03/2014	06:00:00	0.0003075787401574803
NARR_3HR	03/03/2014	09:00:00	0.0
NARR_3HR	03/03/2014	12:00:00	0.02614419291338583
NARR_3HR	03/03/2014	15:00:00	0.0
NARR_3HR	03/03/2014	18:00:00	0.0
NARR_3HR	03/03/2014	21:00:00	0.0
NARR_3HR	03/04/2014	00:00:00	0.007997047244094488
NARR_3HR	03/04/2014	03:00:00	0.45152559055118113
NARR_3HR	03/04/2014	06:00:00	0.0012303149606299212
NARR_3HR	03/04/2014	09:00:00	0.13410433070866143
NARR_3HR	03/04/2014	12:00:00	0.08889025590551182
NARR_3HR	03/04/2014	15:00:00	0.22176427165354332
NARR_3HR	03/04/2014	18:00:00	0.13656496062992127
NARR_3HR	03/04/2014	21:00:00	0.0003075787401574803
NARR_3HR	03/05/2014	00:00:00	0.0003075787401574803
NARR_3HR	03/05/2014	03:00:00	0.0003075787401574803
NARR_3HR	03/05/2014	06:00:00	0.0006151574803149606
NARR_3HR	03/05/2014	09:00:00	0.0021530511811023623
NARR_3HR	03/05/2014	12:00:00	0.005536417322834646
NARR_3HR	03/05/2014	15:00:00	0.0030757874015748033
NARR_3HR	03/05/2014	18:00:00	0.000922736220472441
NARR_3HR	03/05/2014	21:00:00	0.003690944881889764
NARR_3HR	03/06/2014	00:00:00	0.0
NARR_3HR	03/06/2014	03:00:00	0.0003075787401574803
NARR_3HR	03/06/2014	06:00:00	0.000922736220472441
NARR_3HR	03/06/2014	09:00:00	0.003998523622047244
NARR_3HR	03/06/2014	12:00:00	0.0
NARR_3HR	03/06/2014	15:00:00	0.0030757874015748033
NARR_3HR	03/06/2014	18:00:00	0.0
NARR_3HR	03/06/2014	21:00:00	0.0
NARR_3HR	03/07/2014	00:00:00	0.0
NARR_3HR	03/07/2014	03:00:00	0.0
NARR_3HR	03/07/2014	06:00:00	0.0
NARR_3HR	03/07/2014	09:00:00	0.0
NARR_3HR	03/07/2014	12:00:00	0.0
NARR_3HR	03/07/2014	15:00:00	0.0015378937007874017
NARR_3HR	03/07/2014	18:00:00	0.0
NARR_3HR	03/07/2014	21:00:00	0.0
NARR_3HR	03/08/2014	00:00:00	0.0
NARR_3HR	03/08/2014	03:00:00	0.0003075787401574803
NARR_3HR	03/08/2014	06:00:00	0.0006151574803149606
NARR_3HR	03/08/2014	09:00:00	0.0
NARR_3HR	03/08/2014	12:00:00	0.013225885826771654
NARR_3HR	03/08/2014	15:00:00	0.0
NARR_3HR	03/08/2014	18:00:00	0.0
NARR_3HR	03/08/2014	21:00:00	0.0
NARR_3HR	03/09/2014	00:00:00	0.0
NARR_3HR	03/09/2014	03:00:00	0.02675935039370079
NARR_3HR	03/09/2014	06:00:00	0.3324926181102362
NARR_3HR	03/09/2014	09:00:00	0.1917329172449788
NARR_3HR	03/09/2014	12:00:00	0.021838090551181105
NARR_3HR	03/09/2014	15:00:00	0.0
NARR_3HR	03/09/2014	18:00:00	0.003998523622047244
NARR_3HR	03/09/2014	21:00:00	0.0
NARR_3HR	03/10/2014	00:00:00	0.0
NARR_3HR	03/10/2014	03:00:00	0.0003075787401574803
NARR_3HR	03/10/2014	06:00:00	0.0
NARR_3HR	03/10/2014	09:00:00	0.0003075787401574803
NARR_3HR	03/10/2014	12:00:00	0.0003075787401574803
NARR_3HR	03/10/2014	15:00:00	0.0
NARR_3HR	03/10/2014	18:00:00	0.0
NARR_3HR	03/10/2014	21:00:00	0.0
NARR_3HR	03/11/2014	00:00:00	0.0003075787401574803
NARR_3HR	03/11/2014	03:00:00	0.001845472440944882
NARR_3HR	03/11/2014	06:00:00	0.0003075787401574803
NARR_3HR	03/11/2014	09:00:00	0.0003075787401574803
NARR_3HR	03/11/2014	12:00:00	0.0
NARR_3HR	03/11/2014	15:00:00	0.0
NARR_3HR	03/11/2014	18:00:00	0.0
NARR_3HR	03/11/2014	21:00:00	0.0
NARR_3HR	03/12/2014	00:00:00	0.0
NARR_3HR	03/12/2014	03:00:00	0.0
NARR_3HR	03/12/2014	06:00:00	0.0024606299212598425
NARR_3HR	03/12/2014	09:00:00	0.0012303149606299212
NARR_3HR	03/12/2014	12:00:00	0.0
NARR_3HR	03/12/2014	15:00:00	2.1448725555825424e-05
NARR_3HR	03/12/2014	18:00:00	0.0
NARR_3HR	03/12/2014	21:00:00	0.0
NARR_3HR	03/13/2014	00:00:00	0.0
NARR_3HR	03/13/2014	03:00:00	0.0
NARR_3HR	03/13/2014	06:00:00	0.0
NARR_3HR	03/13/2014	09:00:00	0.0
NARR_3HR	03/13/2014	12:00:00	0.0
NARR_3HR	03/13/2014	15:00:00	0.0
NARR_3HR	03/13/2014	18:00:00	0.0
NARR_3HR	03/13/2014	21:00:00	0.0
NARR_3HR	03/14/2014	00:00:00	0.0
NARR_3HR	03/14/2014	03:00:00	0.0
NARR_3HR	03/14/2014	06:00:00	0.0
NARR_3HR	03/14/2014	09:00:00	0.0
NARR_3HR	03/14/2014	12:00:00	0.0
NARR_3HR	03/14/2014	15:00:00	0.0
NARR_3HR	03/14/2014	18:00:00	0.0
NARR_3HR	03/14/2014	21:00:00	0.0
NARR_3HR	03/15/2014	00:00:00	0.0
NARR_3HR	03/15/2014	03:00:00	0.000922736220472441
NARR_3HR	03/15/2014	06:00:00	0.0021530511811023623
NARR_3HR	03/15/2014	09:00:00	0.0003075787401574803
NARR_3HR	03/15/2014	12:00:00	0.0015378937007874017
NARR_3HR	03/15/2014	15:00:00	0.03361785271036344
NARR_3HR	03/15/2014	18:00:00	0.23868110236220474
NARR_3HR	03/15/2014	21:00:00	0.2915846456692914
NARR_3HR	03/16/2014	00:00:00	0.03967765748031496
NARR_3HR	03/16/2014	03:00:00	0.02860482283464567
NARR_3HR	03/16/2014	06:00:00	0.006151574803149607
NARR_3HR	03/16/2014	09:00:00	0.005228838582677166
NARR_3HR	03/16/2014	12:00:00	0.024606299212598427
NARR_3HR	03/16/2014	15:00:00	0.027066929133858268
NARR_3HR	03/16/2014	18:00:00	0.003998523622047244
NARR_3HR	03/16/2014	21:00:00	0.000922736220472441
NARR_3HR	03/17/2014	00:00:00	0.0003075787401574803
NARR_3HR	03/17/2014	03:00:00	0.0
NARR_3HR	03/17/2014	06:00:00	0.0
NARR_3HR	03/17/2014	09:00:00	0.0
NARR_3HR	03/17/2014	12:00:00	0.0
NARR_3HR	03/17/2014	15:00:00	0.0
NARR_3HR	03/17/2014	18:00:00	0.0
NARR_3HR	03/17/2014	21:00:00	0.0
NARR_3HR	03/18/2014	00:00:00	0.0
NARR_3HR	03/18/2014	03:00:00	0.0
NARR_3HR	03/18/2014	06:00:00	0.0
NARR_3HR	03/18/2014	09:00:00	0.0
NARR_3HR	03/18/2014	12:00:00	0.0
NARR_3HR	03/18/2014	15:00:00	0.0
NARR_3HR	03/18/2014	18:00:00	0.0
NARR_3HR	03/18/2014	21:00:00	0.0
NARR_3HR	03/19/2014	00:00:00	0.0
NARR_3HR	03/19/2014	03:00:00	0.0003075787401574803
NARR_3HR	03/19/2014	06:00:00	5.7246262852953176e-05
NARR_3HR	03/19/2014	09:00:00	0.0015378937007874017
NARR_3HR	03/19/2014	12:00:00	0.0
NARR_3HR	03/19/2014	15:00:00	0.0
NARR_3HR	03/19/2014	18:00:00	0.0
NARR_3HR	03/19/2014	21:00:00	0.0
NARR_3HR	03/20/2014	00:00:00	0.0
NARR_3HR	03/20/2014	03:00:00	0.0
NARR_3HR	03/20/2014	06:00:00	0.0
NARR_3HR	03/20/2014	09:00:00	0.0
NARR_3HR	03/20/2014	12:00:00	0.0
NARR_3HR	03/20/2014	15:00:00	0.0
NARR_3HR	03/20/2014	18:00:00	0.0
NARR_3HR	03/20/2014	21:00:00	0.0
NARR_3HR	03/21/2014	00:00:00	0.0
NARR_3HR	03/21/2014	03:00:00	0.0
NARR_3HR	03/21/2014	06:00:00	0.0
NARR_3HR	03/21/2014	09:00:00	0.0
NARR_3HR	03/21/2014	12:00:00	0.0
NARR_3HR	03/21/2014	15:00:00	0.0
NARR_3HR	03/21/2014	18:00:00	0.0
NARR_3HR	03/21/2014	21:00:00	0.0
NARR_3HR	03/22/2014	00:00:00	0.0
NARR_3HR	03/22/2014	03:00:00	0.0003075787401574803
NARR_3HR	03/22/2014	06:00:00	0.0003075787401574803
NARR_3HR	03/22/2014	09:00:00	0.0006151574803149606
NARR_3HR	03/22/2014	12:00:00	0.0
NARR_3HR	03/22/2014	15:00:00	0.0
NARR_3HR	03/22/2014	18:00:00	0.0
NARR_3HR	03/22/2014	21:00:00	0.0
NARR_3HR	03/23/2014	00:00:00	0.002768208661417323
NARR_3HR	03/23/2014	03:00:00	0.015071358267716536
NARR_3HR	03/23/2014	06:00:00	0.014148622047244095
NARR_3HR	03/23/2014	09:00:00	0.0
NARR_3HR	03/23/2014	12:00:00	0.0
NARR_3HR	03/23/2014	15:00:00	0.0
NARR_3HR	03/23/2014	18:00:00	0.0012303149606299212
NARR_3HR	03/23/2014	21:00:00	0.010150098425196851
NARR_3HR	03/24/2014	00:00:00	0.060593011811023625
NARR_3HR	03/24/2014	03:00:00	0.004921259842519685