[TITLE]
;; No Green Infrastructure
;; 170319800001 Illinois, Cook County
;; Tract: 9800	Block Group: 001

[OPTIONS]
;;Option		Value
FLOW_UNITS		CFS
INFILTRATION		GREEN_AMPT
FLOW_ROUTING		KINWAVE
LINK_OFFSETS		DEPTH
MIN_SLOPE		0
ALLOW_PONDING		NO
SKIP_STEADY_STATE	NO

START_DATE		01/01/2014
START_TIME		00:00:00
REPORT_START_DATE	01/01/2014
REPORT_START_TIME	00:00:00
END_DATE		12/31/2014
END_TIME		23:59:59
SWEEP_START		01/01
SWEEP_END		12/31
DRY_DAYS		0
REPORT_STEP		01:00:00
WET_STEP		00:06:00
DRY_STEP		00:06:00
ROUTING_STEP		00:01:00

INERTIAL_DAMPING	PARTIAL
NORMAL_FLOW_LIMITED	BOTH
FORCE_MAIN_EQUATION	H-W
VARIABLE_STEP		0.75
LENGTHENING_STEP	0
MIN_SURFAREA		12.557
MAX_TRIALS		8
HEAD_TOLERANCE		0.005
SYS_FLOW_TOL		5
LAT_FLOW_TOL		5
MINIMUM_STEP		0.5
THREADS			1

[EVAPORATION]
;;DATA	Source	Parameters
;;------------------------
MONTHLY	0.019682632959949972	0.02629126631848812	0.046754532815372944	0.1036420015127182	0.15779854817652703	0.190120052516222	0.19130414870352744	0.15033754447102543	0.10281012672672271	0.05650530885238647	0.02763689118036032	0.017989829627901313	
DRY_ONLY	YES

[RAINGAGES]
;;Name	Format	Interval	SCF	Source
;;--------------------------------------------
RainGage2	VOLUME	03:00:00	1	TIMESERIES NARR_DISAGGREGATION_TEST_3HR

[SUBCATCHMENTS]
;;Name	Rain Gage	Outlet	Area	%Imperv	Width	%Slope	CurbLen	SnowPack
;;------------------------------------------------------------------------------
Subcatch1	RainGage2	Outfall1	4933.82198249943	69.9930132972729	1432781.90371784	1.35923671722412	0
Subcatch2	RainGage2	Outfall1	0	100	0	0	0
Subcatch3	Raingage2	Outfall1	0.000	100	0	0	0
Subcatch4	RainGage2	Cisterns	0.000	100	0	0	0

[SUBAREAS]
;;Subcatch	N-Imperv	N-Perv	S-Imperv	S-Perv	PctZero	RouteTo	PctRouted
;;---------------------------------------------------------------------------------------
Subcatch1	0.01	.302550228704907	0.05	.205100457409814	0	OUTLET
Subcatch2	0	0	0	0	0	OUTLET
Subcatch3	0	0	0	6	0	OUTLET
Subcatch4	0	0	0	0	0	OUTLET

[INFILTRATION]
;;Subcatchment	Suction	Ksat	IMD
;;------------------------------------------------------
Subcatch1	10.4954120055828	.0406376667725071	.433286705072063
Subcatch2	10.4954120055828	.0406376667725071	.433286705072063
Subcatch3	10.4954120055828	.0406376667725071	.433286705072063
Subcatch4	10.4954120055828	.0406376667725071	.433286705072063

[LID_CONTROLS]
;;Name	Type/Layer	Parameters
;;--------------------------------------------
RainGarden	BC
RainGarden	SURFACE	6	0	0	0	0
RainGarden	SOIL	12	0.45	0.1	0.05	10	10	1.6
RainGarden	STORAGE	0	0	0.4	0
RainGarden	DRAIN	0	0.5	6	6

GreenRoof	BC
GreenRoof	SURFACE	0	0	0	0	0
GreenRoof	SOIL	4	0.45	0.1	0.05	10	10	1.6
GreenRoof	STORAGE	3	0.75	0	0
GreenRoof	DRAIN	10	0.5	0	0

StreetPlanter	BC
StreetPlanter	SURFACE	6	0	0	0	0
StreetPlanter	SOIL	18	0.45	0.1	0.05	10	10	1.6
StreetPlanter	STORAGE	12	0.75	0.108	0

PorousPavement	PP
PorousPavement	SURFACE	0.05	0	0.01	3	0
PorousPavement	PAVEMENT	6	0.12	0	400	0
PorousPavement	STORAGE	18	0.75	0.108	0

[LID_USAGE]
;;Subcatchment	LID	Process	Number	Area	Width	InitSat	FromImp	ToPerv	RptFile	DrainTo

[JUNCTIONS]
;;Name	Elevation	MaxDepth	InitDepth	SurDepth	Aponded
;;---------------------------------------------------------
Cisterns	0	0	0	0	0

[OUTFALLS]
;;Name	Elevation	Type	Stage	Data	Gated	Routed	To
;;----------------------------------------------------------------------------
Outfall1	0	FREE	NO

[STORAGE]

[CONDUITS]

[XSECTIONS]

[TIMESERIES]
;;Name	Date	Time	Value
;;---------------------------
NARR_DISAGGREGATION_TEST_3HR	01/01/2014	00:00:00	0.01891609251968504
NARR_DISAGGREGATION_TEST_3HR	01/01/2014	03:00:00	0.01891609251968504
NARR_DISAGGREGATION_TEST_3HR	01/01/2014	06:00:00	0.01891609251968504
NARR_DISAGGREGATION_TEST_3HR	01/01/2014	09:00:00	0.01891609251968504
NARR_DISAGGREGATION_TEST_3HR	01/01/2014	12:00:00	0.01891609251968504
NARR_DISAGGREGATION_TEST_3HR	01/01/2014	15:00:00	0.01891609251968504
NARR_DISAGGREGATION_TEST_3HR	01/01/2014	18:00:00	0.01891609251968504
NARR_DISAGGREGATION_TEST_3HR	01/01/2014	21:00:00	0.01891609251968504
NARR_DISAGGREGATION_TEST_3HR	01/02/2014	00:00:00	0.014936792568897638
NARR_DISAGGREGATION_TEST_3HR	01/02/2014	03:00:00	0.014936792568897638
NARR_DISAGGREGATION_TEST_3HR	01/02/2014	06:00:00	0.014936792568897638
NARR_DISAGGREGATION_TEST_3HR	01/02/2014	09:00:00	0.014936792568897638
NARR_DISAGGREGATION_TEST_3HR	01/02/2014	12:00:00	0.014936792568897638
NARR_DISAGGREGATION_TEST_3HR	01/02/2014	15:00:00	0.014936792568897638
NARR_DISAGGREGATION_TEST_3HR	01/02/2014	18:00:00	0.014936792568897638
NARR_DISAGGREGATION_TEST_3HR	01/02/2014	21:00:00	0.014936792568897638
NARR_DISAGGREGATION_TEST_3HR	01/03/2014	00:00:00	0.001614788385826772
NARR_DISAGGREGATION_TEST_3HR	01/03/2014	03:00:00	0.001614788385826772
NARR_DISAGGREGATION_TEST_3HR	01/03/2014	06:00:00	0.001614788385826772
NARR_DISAGGREGATION_TEST_3HR	01/03/2014	09:00:00	0.001614788385826772
NARR_DISAGGREGATION_TEST_3HR	01/03/2014	12:00:00	0.001614788385826772
NARR_DISAGGREGATION_TEST_3HR	01/03/2014	15:00:00	0.001614788385826772
NARR_DISAGGREGATION_TEST_3HR	01/03/2014	18:00:00	0.001614788385826772
NARR_DISAGGREGATION_TEST_3HR	01/03/2014	21:00:00	0.001614788385826772
NARR_DISAGGREGATION_TEST_3HR	01/04/2014	00:00:00	0.001807025098425197
NARR_DISAGGREGATION_TEST_3HR	01/04/2014	03:00:00	0.001807025098425197
NARR_DISAGGREGATION_TEST_3HR	01/04/2014	06:00:00	0.001807025098425197
NARR_DISAGGREGATION_TEST_3HR	01/04/2014	09:00:00	0.001807025098425197
NARR_DISAGGREGATION_TEST_3HR	01/04/2014	12:00:00	0.001807025098425197
NARR_DISAGGREGATION_TEST_3HR	01/04/2014	15:00:00	0.001807025098425197
NARR_DISAGGREGATION_TEST_3HR	01/04/2014	18:00:00	0.001807025098425197
NARR_DISAGGREGATION_TEST_3HR	01/04/2014	21:00:00	0.001807025098425197
NARR_DISAGGREGATION_TEST_3HR	01/05/2014	00:00:00	0.029226794956237312
NARR_DISAGGREGATION_TEST_3HR	01/05/2014	03:00:00	0.029226794956237312
NARR_DISAGGREGATION_TEST_3HR	01/05/2014	06:00:00	0.029226794956237312
NARR_DISAGGREGATION_TEST_3HR	01/05/2014	09:00:00	0.029226794956237312
NARR_DISAGGREGATION_TEST_3HR	01/05/2014	12:00:00	0.029226794956237312
NARR_DISAGGREGATION_TEST_3HR	01/05/2014	15:00:00	0.029226794956237312
NARR_DISAGGREGATION_TEST_3HR	01/05/2014	18:00:00	0.029226794956237312
NARR_DISAGGREGATION_TEST_3HR	01/05/2014	21:00:00	0.029226794956237312
NARR_DISAGGREGATION_TEST_3HR	01/06/2014	00:00:00	0.0012495386318897642
NARR_DISAGGREGATION_TEST_3HR	01/06/2014	03:00:00	0.0012495386318897642
NARR_DISAGGREGATION_TEST_3HR	01/06/2014	06:00:00	0.0012495386318897642
NARR_DISAGGREGATION_TEST_3HR	01/06/2014	09:00:00	0.0012495386318897642
NARR_DISAGGREGATION_TEST_3HR	01/06/2014	12:00:00	0.0012495386318897642
NARR_DISAGGREGATION_TEST_3HR	01/06/2014	15:00:00	0.0012495386318897642
NARR_DISAGGREGATION_TEST_3HR	01/06/2014	18:00:00	0.0012495386318897642
NARR_DISAGGREGATION_TEST_3HR	01/06/2014	21:00:00	0.0012495386318897642
NARR_DISAGGREGATION_TEST_3HR	01/07/2014	00:00:00	0.0036363162862972954
NARR_DISAGGREGATION_TEST_3HR	01/07/2014	03:00:00	0.0036363162862972954
NARR_DISAGGREGATION_TEST_3HR	01/07/2014	06:00:00	0.0036363162862972954
NARR_DISAGGREGATION_TEST_3HR	01/07/2014	09:00:00	0.0036363162862972954
NARR_DISAGGREGATION_TEST_3HR	01/07/2014	12:00:00	0.0036363162862972954
NARR_DISAGGREGATION_TEST_3HR	01/07/2014	15:00:00	0.0036363162862972954
NARR_DISAGGREGATION_TEST_3HR	01/07/2014	18:00:00	0.0036363162862972954
NARR_DISAGGREGATION_TEST_3HR	01/07/2014	21:00:00	0.0036363162862972954
NARR_DISAGGREGATION_TEST_3HR	01/08/2014	00:00:00	0.00015378937007874016
NARR_DISAGGREGATION_TEST_3HR	01/08/2014	03:00:00	0.00015378937007874016
NARR_DISAGGREGATION_TEST_3HR	01/08/2014	06:00:00	0.00015378937007874016
NARR_DISAGGREGATION_TEST_3HR	01/08/2014	09:00:00	0.00015378937007874016
NARR_DISAGGREGATION_TEST_3HR	01/08/2014	12:00:00	0.00015378937007874016
NARR_DISAGGREGATION_TEST_3HR	01/08/2014	15:00:00	0.00015378937007874016
NARR_DISAGGREGATION_TEST_3HR	01/08/2014	18:00:00	0.00015378937007874016
NARR_DISAGGREGATION_TEST_3HR	01/08/2014	21:00:00	0.00015378937007874016
NARR_DISAGGREGATION_TEST_3HR	01/09/2014	00:00:00	9.61183562992126e-05
NARR_DISAGGREGATION_TEST_3HR	01/09/2014	03:00:00	9.61183562992126e-05
NARR_DISAGGREGATION_TEST_3HR	01/09/2014	06:00:00	9.61183562992126e-05
NARR_DISAGGREGATION_TEST_3HR	01/09/2014	09:00:00	9.61183562992126e-05
NARR_DISAGGREGATION_TEST_3HR	01/09/2014	12:00:00	9.61183562992126e-05
NARR_DISAGGREGATION_TEST_3HR	01/09/2014	15:00:00	9.61183562992126e-05
NARR_DISAGGREGATION_TEST_3HR	01/09/2014	18:00:00	9.61183562992126e-05
NARR_DISAGGREGATION_TEST_3HR	01/09/2014	21:00:00	9.61183562992126e-05
NARR_DISAGGREGATION_TEST_3HR	01/10/2014	00:00:00	0.08239792087885339
NARR_DISAGGREGATION_TEST_3HR	01/10/2014	03:00:00	0.08239792087885339
NARR_DISAGGREGATION_TEST_3HR	01/10/2014	06:00:00	0.08239792087885339
NARR_DISAGGREGATION_TEST_3HR	01/10/2014	09:00:00	0.08239792087885339
NARR_DISAGGREGATION_TEST_3HR	01/10/2014	12:00:00	0.08239792087885339
NARR_DISAGGREGATION_TEST_3HR	01/10/2014	15:00:00	0.08239792087885339
NARR_DISAGGREGATION_TEST_3HR	01/10/2014	18:00:00	0.08239792087885339
NARR_DISAGGREGATION_TEST_3HR	01/10/2014	21:00:00	0.08239792087885339
NARR_DISAGGREGATION_TEST_3HR	01/11/2014	00:00:00	0.04171892883270745
NARR_DISAGGREGATION_TEST_3HR	01/11/2014	03:00:00	0.04171892883270745
NARR_DISAGGREGATION_TEST_3HR	01/11/2014	06:00:00	0.04171892883270745
NARR_DISAGGREGATION_TEST_3HR	01/11/2014	09:00:00	0.04171892883270745
NARR_DISAGGREGATION_TEST_3HR	01/11/2014	12:00:00	0.04171892883270745
NARR_DISAGGREGATION_TEST_3HR	01/11/2014	15:00:00	0.04171892883270745
NARR_DISAGGREGATION_TEST_3HR	01/11/2014	18:00:00	0.04171892883270745
NARR_DISAGGREGATION_TEST_3HR	01/11/2014	21:00:00	0.04171892883270745
NARR_DISAGGREGATION_TEST_3HR	01/12/2014	00:00:00	0.009265809547244095
NARR_DISAGGREGATION_TEST_3HR	01/12/2014	03:00:00	0.009265809547244095
NARR_DISAGGREGATION_TEST_3HR	01/12/2014	06:00:00	0.009265809547244095
NARR_DISAGGREGATION_TEST_3HR	01/12/2014	09:00:00	0.009265809547244095
NARR_DISAGGREGATION_TEST_3HR	01/12/2014	12:00:00	0.009265809547244095
NARR_DISAGGREGATION_TEST_3HR	01/12/2014	15:00:00	0.009265809547244095
NARR_DISAGGREGATION_TEST_3HR	01/12/2014	18:00:00	0.009265809547244095
NARR_DISAGGREGATION_TEST_3HR	01/12/2014	21:00:00	0.009265809547244095
NARR_DISAGGREGATION_TEST_3HR	01/13/2014	00:00:00	0.0
NARR_DISAGGREGATION_TEST_3HR	01/13/2014	03:00:00	0.0
NARR_DISAGGREGATION_TEST_3HR	01/13/2014	06:00:00	0.0
NARR_DISAGGREGATION_TEST_3HR	01/13/2014	09:00:00	0.0
NARR_DISAGGREGATION_TEST_3HR	01/13/2014	12:00:00	0.0
NARR_DISAGGREGATION_TEST_3HR	01/13/2014	15:00:00	0.0
NARR_DISAGGREGATION_TEST_3HR	01/13/2014	18:00:00	0.0
NARR_DISAGGREGATION_TEST_3HR	01/13/2014	21:00:00	0.0
NARR_DISAGGREGATION_TEST_3HR	01/14/2014	00:00:00	0.0011818691736131203
NARR_DISAGGREGATION_TEST_3HR	01/14/2014	03:00:00	0.0011818691736131203
NARR_DISAGGREGATION_TEST_3HR	01/14/2014	06:00:00	0.0011818691736131203
NARR_DISAGGREGATION_TEST_3HR	01/14/2014	09:00:00	0.0011818691736131203
NARR_DISAGGREGATION_TEST_3HR	01/14/2014	12:00:00	0.0011818691736131203
NARR_DISAGGREGATION_TEST_3HR	01/14/2014	15:00:00	0.0011818691736131203
NARR_DISAGGREGATION_TEST_3HR	01/14/2014	18:00:00	0.0011818691736131203
NARR_DISAGGREGATION_TEST_3HR	01/14/2014	21:00:00	0.0011818691736131203
NARR_DISAGGREGATION_TEST_3HR	01/15/2014	00:00:00	0.0006131324770413046
NARR_DISAGGREGATION_TEST_3HR	01/15/2014	03:00:00	0.0006131324770413046
NARR_DISAGGREGATION_TEST_3HR	01/15/2014	06:00:00	0.0006131324770413046
NARR_DISAGGREGATION_TEST_3HR	01/15/2014	09:00:00	0.0006131324770413046
NARR_DISAGGREGATION_TEST_3HR	01/15/2014	12:00:00	0.0006131324770413046
NARR_DISAGGREGATION_TEST_3HR	01/15/2014	15:00:00	0.0006131324770413046
NARR_DISAGGREGATION_TEST_3HR	01/15/2014	18:00:00	0.0006131324770413046
NARR_DISAGGREGATION_TEST_3HR	01/15/2014	21:00:00	0.0006131324770413046
NARR_DISAGGREGATION_TEST_3HR	01/16/2014	00:00:00	0.0014225516732283465
NARR_DISAGGREGATION_TEST_3HR	01/16/2014	03:00:00	0.0014225516732283465
NARR_DISAGGREGATION_TEST_3HR	01/16/2014	06:00:00	0.0014225516732283465
NARR_DISAGGREGATION_TEST_3HR	01/16/2014	09:00:00	0.0014225516732283465
NARR_DISAGGREGATION_TEST_3HR	01/16/2014	12:00:00	0.0014225516732283465
NARR_DISAGGREGATION_TEST_3HR	01/16/2014	15:00:00	0.0014225516732283465
NARR_DISAGGREGATION_TEST_3HR	01/16/2014	18:00:00	0.0014225516732283465
NARR_DISAGGREGATION_TEST_3HR	01/16/2014	21:00:00	0.0014225516732283465
NARR_DISAGGREGATION_TEST_3HR	01/17/2014	00:00:00	0.00011534202755905513
NARR_DISAGGREGATION_TEST_3HR	01/17/2014	03:00:00	0.00011534202755905513
NARR_DISAGGREGATION_TEST_3HR	01/17/2014	06:00:00	0.00011534202755905513
NARR_DISAGGREGATION_TEST_3HR	01/17/2014	09:00:00	0.00011534202755905513
NARR_DISAGGREGATION_TEST_3HR	01/17/2014	12:00:00	0.00011534202755905513
NARR_DISAGGREGATION_TEST_3HR	01/17/2014	15:00:00	0.00011534202755905513
NARR_DISAGGREGATION_TEST_3HR	01/17/2014	18:00:00	0.00011534202755905513
NARR_DISAGGREGATION_TEST_3HR	01/17/2014	21:00:00	0.00011534202755905513
NARR_DISAGGREGATION_TEST_3HR	01/18/2014	00:00:00	0.0021146038385826773
NARR_DISAGGREGATION_TEST_3HR	01/18/2014	03:00:00	0.0021146038385826773
NARR_DISAGGREGATION_TEST_3HR	01/18/2014	06:00:00	0.0021146038385826773
NARR_DISAGGREGATION_TEST_3HR	01/18/2014	09:00:00	0.0021146038385826773
NARR_DISAGGREGATION_TEST_3HR	01/18/2014	12:00:00	0.0021146038385826773
NARR_DISAGGREGATION_TEST_3HR	01/18/2014	15:00:00	0.0021146038385826773
NARR_DISAGGREGATION_TEST_3HR	01/18/2014	18:00:00	0.0021146038385826773
NARR_DISAGGREGATION_TEST_3HR	01/18/2014	21:00:00	0.0021146038385826773
NARR_DISAGGREGATION_TEST_3HR	01/19/2014	00:00:00	0.00010359051498019789
NARR_DISAGGREGATION_TEST_3HR	01/19/2014	03:00:00	0.00010359051498019789
NARR_DISAGGREGATION_TEST_3HR	01/19/2014	06:00:00	0.00010359051498019789
NARR_DISAGGREGATION_TEST_3HR	01/19/2014	09:00:00	0.00010359051498019789
NARR_DISAGGREGATION_TEST_3HR	01/19/2014	12:00:00	0.00010359051498019789
NARR_DISAGGREGATION_TEST_3HR	01/19/2014	15:00:00	0.00010359051498019789
NARR_DISAGGREGATION_TEST_3HR	01/19/2014	18:00:00	0.00010359051498019789
NARR_DISAGGREGATION_TEST_3HR	01/19/2014	21:00:00	0.00010359051498019789
NARR_DISAGGREGATION_TEST_3HR	01/20/2014	00:00:00	0.0011726439468503938
NARR_DISAGGREGATION_TEST_3HR	01/20/2014	03:00:00	0.0011726439468503938
NARR_DISAGGREGATION_TEST_3HR	01/20/2014	06:00:00	0.0011726439468503938
NARR_DISAGGREGATION_TEST_3HR	01/20/2014	09:00:00	0.0011726439468503938
NARR_DISAGGREGATION_TEST_3HR	01/20/2014	12:00:00	0.0011726439468503938
NARR_DISAGGREGATION_TEST_3HR	01/20/2014	15:00:00	0.0011726439468503938
NARR_DISAGGREGATION_TEST_3HR	01/20/2014	18:00:00	0.0011726439468503938
NARR_DISAGGREGATION_TEST_3HR	01/20/2014	21:00:00	0.0011726439468503938
NARR_DISAGGREGATION_TEST_3HR	01/21/2014	00:00:00	0.011841781496062995
NARR_DISAGGREGATION_TEST_3HR	01/21/2014	03:00:00	0.011841781496062995
NARR_DISAGGREGATION_TEST_3HR	01/21/2014	06:00:00	0.011841781496062995
NARR_DISAGGREGATION_TEST_3HR	01/21/2014	09:00:00	0.011841781496062995
NARR_DISAGGREGATION_TEST_3HR	01/21/2014	12:00:00	0.011841781496062995
NARR_DISAGGREGATION_TEST_3HR	01/21/2014	15:00:00	0.011841781496062995
NARR_DISAGGREGATION_TEST_3HR	01/21/2014	18:00:00	0.011841781496062995
NARR_DISAGGREGATION_TEST_3HR	01/21/2014	21:00:00	0.011841781496062995
NARR_DISAGGREGATION_TEST_3HR	01/22/2014	00:00:00	0.0005447472936994447
NARR_DISAGGREGATION_TEST_3HR	01/22/2014	03:00:00	0.0005447472936994447
NARR_DISAGGREGATION_TEST_3HR	01/22/2014	06:00:00	0.0005447472936994447
NARR_DISAGGREGATION_TEST_3HR	01/22/2014	09:00:00	0.0005447472936994447
NARR_DISAGGREGATION_TEST_3HR	01/22/2014	12:00:00	0.0005447472936994447
NARR_DISAGGREGATION_TEST_3HR	01/22/2014	15:00:00	0.0005447472936994447
NARR_DISAGGREGATION_TEST_3HR	01/22/2014	18:00:00	0.0005447472936994447
NARR_DISAGGREGATION_TEST_3HR	01/22/2014	21:00:00	0.0005447472936994447
NARR_DISAGGREGATION_TEST_3HR	01/23/2014	00:00:00	0.0004998154527559055
NARR_DISAGGREGATION_TEST_3HR	01/23/2014	03:00:00	0.0004998154527559055
NARR_DISAGGREGATION_TEST_3HR	01/23/2014	06:00:00	0.0004998154527559055
NARR_DISAGGREGATION_TEST_3HR	01/23/2014	09:00:00	0.0004998154527559055
NARR_DISAGGREGATION_TEST_3HR	01/23/2014	12:00:00	0.0004998154527559055
NARR_DISAGGREGATION_TEST_3HR	01/23/2014	15:00:00	0.0004998154527559055
NARR_DISAGGREGATION_TEST_3HR	01/23/2014	18:00:00	0.0004998154527559055
NARR_DISAGGREGATION_TEST_3HR	01/23/2014	21:00:00	0.0004998154527559055
NARR_DISAGGREGATION_TEST_3HR	01/24/2014	00:00:00	0.0005767101377952755
NARR_DISAGGREGATION_TEST_3HR	01/24/2014	03:00:00	0.0005767101377952755
NARR_DISAGGREGATION_TEST_3HR	01/24/2014	06:00:00	0.0005767101377952755
NARR_DISAGGREGATION_TEST_3HR	01/24/2014	09:00:00	0.0005767101377952755
NARR_DISAGGREGATION_TEST_3HR	01/24/2014	12:00:00	0.0005767101377952755
NARR_DISAGGREGATION_TEST_3HR	01/24/2014	15:00:00	0.0005767101377952755
NARR_DISAGGREGATION_TEST_3HR	01/24/2014	18:00:00	0.0005767101377952755
NARR_DISAGGREGATION_TEST_3HR	01/24/2014	21:00:00	0.0005767101377952755
NARR_DISAGGREGATION_TEST_3HR	01/25/2014	00:00:00	0.004709799458661417
NARR_DISAGGREGATION_TEST_3HR	01/25/2014	03:00:00	0.004709799458661417
NARR_DISAGGREGATION_TEST_3HR	01/25/2014	06:00:00	0.004709799458661417
NARR_DISAGGREGATION_TEST_3HR	01/25/2014	09:00:00	0.004709799458661417
NARR_DISAGGREGATION_TEST_3HR	01/25/2014	12:00:00	0.004709799458661417
NARR_DISAGGREGATION_TEST_3HR	01/25/2014	15:00:00	0.004709799458661417
NARR_DISAGGREGATION_TEST_3HR	01/25/2014	18:00:00	0.004709799458661417
NARR_DISAGGREGATION_TEST_3HR	01/25/2014	21:00:00	0.004709799458661417
NARR_DISAGGREGATION_TEST_3HR	01/26/2014	00:00:00	0.014129398375984254
NARR_DISAGGREGATION_TEST_3HR	01/26/2014	03:00:00	0.014129398375984254
NARR_DISAGGREGATION_TEST_3HR	01/26/2014	06:00:00	0.014129398375984254
NARR_DISAGGREGATION_TEST_3HR	01/26/2014	09:00:00	0.014129398375984254
NARR_DISAGGREGATION_TEST_3HR	01/26/2014	12:00:00	0.014129398375984254
NARR_DISAGGREGATION_TEST_3HR	01/26/2014	15:00:00	0.014129398375984254
NARR_DISAGGREGATION_TEST_3HR	01/26/2014	18:00:00	0.014129398375984254
NARR_DISAGGREGATION_TEST_3HR	01/26/2014	21:00:00	0.014129398375984254
NARR_DISAGGREGATION_TEST_3HR	01/27/2014	00:00:00	0.0023688276217678408
NARR_DISAGGREGATION_TEST_3HR	01/27/2014	03:00:00	0.0023688276217678408
NARR_DISAGGREGATION_TEST_3HR	01/27/2014	06:00:00	0.0023688276217678408
NARR_DISAGGREGATION_TEST_3HR	01/27/2014	09:00:00	0.0023688276217678408
NARR_DISAGGREGATION_TEST_3HR	01/27/2014	12:00:00	0.0023688276217678408
NARR_DISAGGREGATION_TEST_3HR	01/27/2014	15:00:00	0.0023688276217678408
NARR_DISAGGREGATION_TEST_3HR	01/27/2014	18:00:00	0.0023688276217678408
NARR_DISAGGREGATION_TEST_3HR	01/27/2014	21:00:00	0.0023688276217678408
NARR_DISAGGREGATION_TEST_3HR	01/28/2014	00:00:00	7.689468503937008e-05
NARR_DISAGGREGATION_TEST_3HR	01/28/2014	03:00:00	7.689468503937008e-05
NARR_DISAGGREGATION_TEST_3HR	01/28/2014	06:00:00	7.689468503937008e-05
NARR_DISAGGREGATION_TEST_3HR	01/28/2014	09:00:00	7.689468503937008e-05
NARR_DISAGGREGATION_TEST_3HR	01/28/2014	12:00:00	7.689468503937008e-05
NARR_DISAGGREGATION_TEST_3HR	01/28/2014	15:00:00	7.689468503937008e-05
NARR_DISAGGREGATION_TEST_3HR	01/28/2014	18:00:00	7.689468503937008e-05
NARR_DISAGGREGATION_TEST_3HR	01/28/2014	21:00:00	7.689468503937008e-05
NARR_DISAGGREGATION_TEST_3HR	01/29/2014	00:00:00	0.00013456569881889764
NARR_DISAGGREGATION_TEST_3HR	01/29/2014	03:00:00	0.00013456569881889764
NARR_DISAGGREGATION_TEST_3HR	01/29/2014	06:00:00	0.00013456569881889764
NARR_DISAGGREGATION_TEST_3HR	01/29/2014	09:00:00	0.00013456569881889764
NARR_DISAGGREGATION_TEST_3HR	01/29/2014	12:00:00	0.00013456569881889764
NARR_DISAGGREGATION_TEST_3HR	01/29/2014	15:00:00	0.00013456569881889764
NARR_DISAGGREGATION_TEST_3HR	01/29/2014	18:00:00	0.00013456569881889764
NARR_DISAGGREGATION_TEST_3HR	01/29/2014	21:00:00	0.00013456569881889764
NARR_DISAGGREGATION_TEST_3HR	01/30/2014	00:00:00	0.0005836712240468799
NARR_DISAGGREGATION_TEST_3HR	01/30/2014	03:00:00	0.0005836712240468799
NARR_DISAGGREGATION_TEST_3HR	01/30/2014	06:00:00	0.0005836712240468799
NARR_DISAGGREGATION_TEST_3HR	01/30/2014	09:00:00	0.0005836712240468799
NARR_DISAGGREGATION_TEST_3HR	01/30/2014	12:00:00	0.0005836712240468799
NARR_DISAGGREGATION_TEST_3HR	01/30/2014	15:00:00	0.0005836712240468799
NARR_DISAGGREGATION_TEST_3HR	01/30/2014	18:00:00	0.0005836712240468799
NARR_DISAGGREGATION_TEST_3HR	01/30/2014	21:00:00	0.0005836712240468799
NARR_DISAGGREGATION_TEST_3HR	01/31/2014	00:00:00	0.0010469286724573046
NARR_DISAGGREGATION_TEST_3HR	01/31/2014	03:00:00	0.0010469286724573046
NARR_DISAGGREGATION_TEST_3HR	01/31/2014	06:00:00	0.0010469286724573046
NARR_DISAGGREGATION_TEST_3HR	01/31/2014	09:00:00	0.0010469286724573046
NARR_DISAGGREGATION_TEST_3HR	01/31/2014	12:00:00	0.0010469286724573046
NARR_DISAGGREGATION_TEST_3HR	01/31/2014	15:00:00	0.0010469286724573046
NARR_DISAGGREGATION_TEST_3HR	01/31/2014	18:00:00	0.0010469286724573046
NARR_DISAGGREGATION_TEST_3HR	01/31/2014	21:00:00	0.0010469286724573046
NARR_DISAGGREGATION_TEST_3HR	02/01/2014	00:00:00	0.03004659817913386
NARR_DISAGGREGATION_TEST_3HR	02/01/2014	03:00:00	0.03004659817913386
NARR_DISAGGREGATION_TEST_3HR	02/01/2014	06:00:00	0.03004659817913386
NARR_DISAGGREGATION_TEST_3HR	02/01/2014	09:00:00	0.03004659817913386
NARR_DISAGGREGATION_TEST_3HR	02/01/2014	12:00:00	0.03004659817913386
NARR_DISAGGREGATION_TEST_3HR	02/01/2014	15:00:00	0.03004659817913386
NARR_DISAGGREGATION_TEST_3HR	02/01/2014	18:00:00	0.03004659817913386
NARR_DISAGGREGATION_TEST_3HR	02/01/2014	21:00:00	0.03004659817913386
NARR_DISAGGREGATION_TEST_3HR	02/02/2014	00:00:00	0.0003652497539370079
NARR_DISAGGREGATION_TEST_3HR	02/02/2014	03:00:00	0.0003652497539370079
NARR_DISAGGREGATION_TEST_3HR	02/02/2014	06:00:00	0.0003652497539370079
NARR_DISAGGREGATION_TEST_3HR	02/02/2014	09:00:00	0.0003652497539370079
NARR_DISAGGREGATION_TEST_3HR	02/02/2014	12:00:00	0.0003652497539370079
NARR_DISAGGREGATION_TEST_3HR	02/02/2014	15:00:00	0.0003652497539370079
NARR_DISAGGREGATION_TEST_3HR	02/02/2014	18:00:00	0.0003652497539370079
NARR_DISAGGREGATION_TEST_3HR	02/02/2014	21:00:00	0.0003652497539370079
NARR_DISAGGREGATION_TEST_3HR	02/03/2014	00:00:00	0.001985323945368369
NARR_DISAGGREGATION_TEST_3HR	02/03/2014	03:00:00	0.001985323945368369
NARR_DISAGGREGATION_TEST_3HR	02/03/2014	06:00:00	0.001985323945368369
NARR_DISAGGREGATION_TEST_3HR	02/03/2014	09:00:00	0.001985323945368369
NARR_DISAGGREGATION_TEST_3HR	02/03/2014	12:00:00	0.001985323945368369
NARR_DISAGGREGATION_TEST_3HR	02/03/2014	15:00:00	0.001985323945368369
NARR_DISAGGREGATION_TEST_3HR	02/03/2014	18:00:00	0.001985323945368369
NARR_DISAGGREGATION_TEST_3HR	02/03/2014	21:00:00	0.001985323945368369
NARR_DISAGGREGATION_TEST_3HR	02/04/2014	00:00:00	0.0007214194794339459
NARR_DISAGGREGATION_TEST_3HR	02/04/2014	03:00:00	0.0007214194794339459
NARR_DISAGGREGATION_TEST_3HR	02/04/2014	06:00:00	0.0007214194794339459
NARR_DISAGGREGATION_TEST_3HR	02/04/2014	09:00:00	0.0007214194794339459
NARR_DISAGGREGATION_TEST_3HR	02/04/2014	12:00:00	0.0007214194794339459
NARR_DISAGGREGATION_TEST_3HR	02/04/2014	15:00:00	0.0007214194794339459
NARR_DISAGGREGATION_TEST_3HR	02/04/2014	18:00:00	0.0007214194794339459
NARR_DISAGGREGATION_TEST_3HR	02/04/2014	21:00:00	0.0007214194794339459
NARR_DISAGGREGATION_TEST_3HR	02/05/2014	00:00:00	0.031296136811023625
NARR_DISAGGREGATION_TEST_3HR	02/05/2014	03:00:00	0.031296136811023625
NARR_DISAGGREGATION_TEST_3HR	02/05/2014	06:00:00	0.031296136811023625
NARR_DISAGGREGATION_TEST_3HR	02/05/2014	09:00:00	0.031296136811023625
NARR_DISAGGREGATION_TEST_3HR	02/05/2014	12:00:00	0.031296136811023625
NARR_DISAGGREGATION_TEST_3HR	02/05/2014	15:00:00	0.031296136811023625
NARR_DISAGGREGATION_TEST_3HR	02/05/2014	18:00:00	0.031296136811023625
NARR_DISAGGREGATION_TEST_3HR	02/05/2014	21:00:00	0.031296136811023625
NARR_DISAGGREGATION_TEST_3HR	02/06/2014	00:00:00	0.0003607851255127764
NARR_DISAGGREGATION_TEST_3HR	02/06/2014	03:00:00	0.0003607851255127764
NARR_DISAGGREGATION_TEST_3HR	02/06/2014	06:00:00	0.0003607851255127764
NARR_DISAGGREGATION_TEST_3HR	02/06/2014	09:00:00	0.0003607851255127764
NARR_DISAGGREGATION_TEST_3HR	02/06/2014	12:00:00	0.0003607851255127764
NARR_DISAGGREGATION_TEST_3HR	02/06/2014	15:00:00	0.0003607851255127764
NARR_DISAGGREGATION_TEST_3HR	02/06/2014	18:00:00	0.0003607851255127764
NARR_DISAGGREGATION_TEST_3HR	02/06/2014	21:00:00	0.0003607851255127764
NARR_DISAGGREGATION_TEST_3HR	02/07/2014	00:00:00	0.00016936266017476405
NARR_DISAGGREGATION_TEST_3HR	02/07/2014	03:00:00	0.00016936266017476405
NARR_DISAGGREGATION_TEST_3HR	02/07/2014	06:00:00	0.00016936266017476405
NARR_DISAGGREGATION_TEST_3HR	02/07/2014	09:00:00	0.00016936266017476405
NARR_DISAGGREGATION_TEST_3HR	02/07/2014	12:00:00	0.00016936266017476405
NARR_DISAGGREGATION_TEST_3HR	02/07/2014	15:00:00	0.00016936266017476405
NARR_DISAGGREGATION_TEST_3HR	02/07/2014	18:00:00	0.00016936266017476405
NARR_DISAGGREGATION_TEST_3HR	02/07/2014	21:00:00	0.00016936266017476405
NARR_DISAGGREGATION_TEST_3HR	02/08/2014	00:00:00	0.0022107221948818897
NARR_DISAGGREGATION_TEST_3HR	02/08/2014	03:00:00	0.0022107221948818897
NARR_DISAGGREGATION_TEST_3HR	02/08/2014	06:00:00	0.0022107221948818897
NARR_DISAGGREGATION_TEST_3HR	02/08/2014	09:00:00	0.0022107221948818897
NARR_DISAGGREGATION_TEST_3HR	02/08/2014	12:00:00	0.0022107221948818897
NARR_DISAGGREGATION_TEST_3HR	02/08/2014	15:00:00	0.0022107221948818897
NARR_DISAGGREGATION_TEST_3HR	02/08/2014	18:00:00	0.0022107221948818897
NARR_DISAGGREGATION_TEST_3HR	02/08/2014	21:00:00	0.0022107221948818897
NARR_DISAGGREGATION_TEST_3HR	02/09/2014	00:00:00	0.0033064714566929136
NARR_DISAGGREGATION_TEST_3HR	02/09/2014	03:00:00	0.0033064714566929136
NARR_DISAGGREGATION_TEST_3HR	02/09/2014	06:00:00	0.0033064714566929136
NARR_DISAGGREGATION_TEST_3HR	02/09/2014	09:00:00	0.0033064714566929136
NARR_DISAGGREGATION_TEST_3HR	02/09/2014	12:00:00	0.0033064714566929136
NARR_DISAGGREGATION_TEST_3HR	02/09/2014	15:00:00	0.0033064714566929136
NARR_DISAGGREGATION_TEST_3HR	02/09/2014	18:00:00	0.0033064714566929136
NARR_DISAGGREGATION_TEST_3HR	02/09/2014	21:00:00	0.0033064714566929136
NARR_DISAGGREGATION_TEST_3HR	02/10/2014	00:00:00	0.00024990772637795275
NARR_DISAGGREGATION_TEST_3HR	02/10/2014	03:00:00	0.00024990772637795275
NARR_DISAGGREGATION_TEST_3HR	02/10/2014	06:00:00	0.00024990772637795275
NARR_DISAGGREGATION_TEST_3HR	02/10/2014	09:00:00	0.00024990772637795275
NARR_DISAGGREGATION_TEST_3HR	02/10/2014	12:00:00	0.00024990772637795275
NARR_DISAGGREGATION_TEST_3HR	02/10/2014	15:00:00	0.00024990772637795275
NARR_DISAGGREGATION_TEST_3HR	02/10/2014	18:00:00	0.00024990772637795275
NARR_DISAGGREGATION_TEST_3HR	02/10/2014	21:00:00	0.00024990772637795275
NARR_DISAGGREGATION_TEST_3HR	02/11/2014	00:00:00	3.446614246918109e-06
NARR_DISAGGREGATION_TEST_3HR	02/11/2014	03:00:00	3.446614246918109e-06
NARR_DISAGGREGATION_TEST_3HR	02/11/2014	06:00:00	3.446614246918109e-06
NARR_DISAGGREGATION_TEST_3HR	02/11/2014	09:00:00	3.446614246918109e-06
NARR_DISAGGREGATION_TEST_3HR	02/11/2014	12:00:00	3.446614246918109e-06
NARR_DISAGGREGATION_TEST_3HR	02/11/2014	15:00:00	3.446614246918109e-06
NARR_DISAGGREGATION_TEST_3HR	02/11/2014	18:00:00	3.446614246918109e-06
NARR_DISAGGREGATION_TEST_3HR	02/11/2014	21:00:00	3.446614246918109e-06
NARR_DISAGGREGATION_TEST_3HR	02/12/2014	00:00:00	0.0004679514608514591
NARR_DISAGGREGATION_TEST_3HR	02/12/2014	03:00:00	0.0004679514608514591
NARR_DISAGGREGATION_TEST_3HR	02/12/2014	06:00:00	0.0004679514608514591
NARR_DISAGGREGATION_TEST_3HR	02/12/2014	09:00:00	0.0004679514608514591
NARR_DISAGGREGATION_TEST_3HR	02/12/2014	12:00:00	0.0004679514608514591
NARR_DISAGGREGATION_TEST_3HR	02/12/2014	15:00:00	0.0004679514608514591
NARR_DISAGGREGATION_TEST_3HR	02/12/2014	18:00:00	0.0004679514608514591
NARR_DISAGGREGATION_TEST_3HR	02/12/2014	21:00:00	0.0004679514608514591
NARR_DISAGGREGATION_TEST_3HR	02/13/2014	00:00:00	0.000480591781496063
NARR_DISAGGREGATION_TEST_3HR	02/13/2014	03:00:00	0.000480591781496063
NARR_DISAGGREGATION_TEST_3HR	02/13/2014	06:00:00	0.000480591781496063
NARR_DISAGGREGATION_TEST_3HR	02/13/2014	09:00:00	0.000480591781496063
NARR_DISAGGREGATION_TEST_3HR	02/13/2014	12:00:00	0.000480591781496063
NARR_DISAGGREGATION_TEST_3HR	02/13/2014	15:00:00	0.000480591781496063
NARR_DISAGGREGATION_TEST_3HR	02/13/2014	18:00:00	0.000480591781496063
NARR_DISAGGREGATION_TEST_3HR	02/13/2014	21:00:00	0.000480591781496063
NARR_DISAGGREGATION_TEST_3HR	02/14/2014	00:00:00	0.0004613681102362205
NARR_DISAGGREGATION_TEST_3HR	02/14/2014	03:00:00	0.0004613681102362205
NARR_DISAGGREGATION_TEST_3HR	02/14/2014	06:00:00	0.0004613681102362205
NARR_DISAGGREGATION_TEST_3HR	02/14/2014	09:00:00	0.0004613681102362205
NARR_DISAGGREGATION_TEST_3HR	02/14/2014	12:00:00	0.0004613681102362205
NARR_DISAGGREGATION_TEST_3HR	02/14/2014	15:00:00	0.0004613681102362205
NARR_DISAGGREGATION_TEST_3HR	02/14/2014	18:00:00	0.0004613681102362205
NARR_DISAGGREGATION_TEST_3HR	02/14/2014	21:00:00	0.0004613681102362205
NARR_DISAGGREGATION_TEST_3HR	02/15/2014	00:00:00	0.0011726439468503938
NARR_DISAGGREGATION_TEST_3HR	02/15/2014	03:00:00	0.0011726439468503938
NARR_DISAGGREGATION_TEST_3HR	02/15/2014	06:00:00	0.0011726439468503938
NARR_DISAGGREGATION_TEST_3HR	02/15/2014	09:00:00	0.0011726439468503938
NARR_DISAGGREGATION_TEST_3HR	02/15/2014	12:00:00	0.0011726439468503938
NARR_DISAGGREGATION_TEST_3HR	02/15/2014	15:00:00	0.0011726439468503938
NARR_DISAGGREGATION_TEST_3HR	02/15/2014	18:00:00	0.0011726439468503938
NARR_DISAGGREGATION_TEST_3HR	02/15/2014	21:00:00	0.0011726439468503938
NARR_DISAGGREGATION_TEST_3HR	02/16/2014	00:00:00	0.0035798584851692984
NARR_DISAGGREGATION_TEST_3HR	02/16/2014	03:00:00	0.0035798584851692984
NARR_DISAGGREGATION_TEST_3HR	02/16/2014	06:00:00	0.0035798584851692984
NARR_DISAGGREGATION_TEST_3HR	02/16/2014	09:00:00	0.0035798584851692984
NARR_DISAGGREGATION_TEST_3HR	02/16/2014	12:00:00	0.0035798584851692984
NARR_DISAGGREGATION_TEST_3HR	02/16/2014	15:00:00	0.0035798584851692984
NARR_DISAGGREGATION_TEST_3HR	02/16/2014	18:00:00	0.0035798584851692984
NARR_DISAGGREGATION_TEST_3HR	02/16/2014	21:00:00	0.0035798584851692984
NARR_DISAGGREGATION_TEST_3HR	02/17/2014	00:00:00	0.016590028297244097