[TITLE]
;; Rain Garden
;; 060375508003 California, Los Angeles County
;; Tract: 5508	Block Group: 003

[OPTIONS]
;;Option		Value
FLOW_UNITS		CFS
INFILTRATION		GREEN_AMPT
FLOW_ROUTING		KINWAVE
LINK_OFFSETS		DEPTH
MIN_SLOPE		0
ALLOW_PONDING		NO
SKIP_STEADY_STATE	NO

START_DATE		01/01/1981
START_TIME		00:00:00
REPORT_START_DATE	01/01/1981
REPORT_START_TIME	00:00:00
END_DATE		12/31/2014
END_TIME		23:59:59
SWEEP_START		01/01
SWEEP_END		12/31
DRY_DAYS		0
REPORT_STEP		01:00:00
WET_STEP		00:06:00
DRY_STEP		00:06:00
ROUTING_STEP		00:01:00

INERTIAL_DAMPING	PARTIAL
NORMAL_FLOW_LIMITED	BOTH
FORCE_MAIN_EQUATION	H-W
VARIABLE_STEP		0.75
LENGTHENING_STEP	0
MIN_SURFAREA		12.557
MAX_TRIALS		8
HEAD_TOLERANCE		0.005
SYS_FLOW_TOL		5
LAT_FLOW_TOL		5
MINIMUM_STEP		0.5
THREADS			1

[EVAPORATION]
;;DATA	Source	Parameters
;;------------------------
MONTHLY	0.02840875532053113	0.04707423916140794	0.068459594704175	0.07406164586727619	0.0534189552128911	0.03439860061321258	0.028088274583023785	0.020534808535724883	0.014967937038555743	0.013805488612863421	0.016207279017490146	0.01981801536244154	
DRY_ONLY	YES

[RAINGAGES]
;;Name	Format	Interval	SCF	Source
;;--------------------------------------------
RainGage2	VOLUME	24:00:00	1	TIMESERIES P_391659

[SUBCATCHMENTS]
;;Name	Rain Gage	Outlet	Area	%Imperv	Width	%Slope	CurbLen	SnowPack
;;------------------------------------------------------------------------------
Subcatch1	RainGage2	Outfall1	67.3855335000138	59.6039603960396	19568.758928404	.299226015806198	0
Subcatch2	RainGage2	Outfall1	0	100	0	0	0
Subcatch3	Raingage2	Outfall1	0.000	100	0	0	0
Subcatch4	RainGage2	Cisterns	0.000	100	0	0	0


[SUBAREAS]
;;Subcatch	N-Imperv	N-Perv	S-Imperv	S-Perv	PctZero	RouteTo	PctRouted
;;---------------------------------------------------------------------------------------
Subcatch1	0.01	.300179738562092	0.05	.200359477124183	0	OUTLET
Subcatch2	0	0	0	0	0	OUTLET
Subcatch3	0	0	0	6	0	OUTLET
Subcatch4	0	0	0	0	0	OUTLET

[INFILTRATION]
;;Subcatchment	Suction	Ksat	IMD
;;------------------------------------------------------
Subcatch1	8.72877764726274	.035173470786526	.32979954162233
Subcatch2	8.72877764726274	.035173470786526	.32979954162233
Subcatch3	8.72877764726274	.035173470786526	.32979954162233
Subcatch4	8.72877764726274	.035173470786526	.32979954162233

[LID_CONTROLS]
;;Name	Type/Layer	Parameters
;;--------------------------------------------
RainGarden	BC
RainGarden	SURFACE	6	0	0	0	0
RainGarden	SOIL	12	.47	.23	.1	2.19685	40.55	2.50053

RainGarden	STORAGE	0	0	.0351569271151553	0
RainGarden	DRAIN	0	0.5	6	6

GreenRoof	BC
GreenRoof	SURFACE	0	0	0	0	0
GreenRoof	SOIL	4	0.45	0.1	0.05	10	10	1.6
GreenRoof	STORAGE	3	0.75	0	0
GreenRoof	DRAIN	10	0.5	0	0

StreetPlanter	BC
StreetPlanter	SURFACE	6	0	0	0	0
StreetPlanter	SOIL	18	0.45	0.1	0.05	10	10	1.6
StreetPlanter	STORAGE	12	0.75	0.108	0

PorousPavement	PP
PorousPavement	SURFACE	0.05	0	0.01	3	0
PorousPavement	PAVEMENT	6	0.12	0	400	0
PorousPavement	STORAGE	18	0.75	0.108	0

[LID_USAGE]
;;Subcatchment	LID	Process	Number	Area	Width	InitSat	FromImp	ToPerv	RptFile	DrainTo
Subcatch1	RainGarden	1	349912.630362557	0	0	100	0


[JUNCTIONS]
;;Name	Elevation	MaxDepth	InitDepth	SurDepth	Aponded
;;---------------------------------------------------------
Cisterns	0	0	0	0	0

[OUTFALLS]
;;Name	Elevation	Type	Stage	Data	Gated	Routed	To
;;----------------------------------------------------------------------------
Outfall1	0	FREE	NO

[STORAGE]

[CONDUITS]

[XSECTIONS]

[TIMESERIES]
;;Name	Date	Time	Value
;;---------------------------
P_391659	01/01/1981	0:00:00	0.0
P_391659	01/02/1981	0:00:00	0.0
P_391659	01/03/1981	0:00:00	0.0
P_391659	01/04/1981	0:00:00	0.0
P_391659	01/05/1981	0:00:00	0.0
P_391659	01/06/1981	0:00:00	0.0
P_391659	01/07/1981	0:00:00	0.0
P_391659	01/08/1981	0:00:00	0.0
P_391659	01/09/1981	0:00:00	0.0
P_391659	01/10/1981	0:00:00	0.0
P_391659	01/11/1981	0:00:00	0.0
P_391659	01/12/1981	0:00:00	0.132283460629921
P_391659	01/13/1981	0:00:00	0.0
P_391659	01/14/1981	0:00:00	0.0
P_391659	01/15/1981	0:00:00	0.0
P_391659	01/16/1981	0:00:00	0.0
P_391659	01/17/1981	0:00:00	0.0
P_391659	01/18/1981	0:00:00	0.0
P_391659	01/19/1981	0:00:00	0.0
P_391659	01/20/1981	0:00:00	0.0
P_391659	01/21/1981	0:00:00	0.0
P_391659	01/22/1981	0:00:00	0.0
P_391659	01/23/1981	0:00:00	0.0440944881889764
P_391659	01/24/1981	0:00:00	0.24094487795275601
P_391659	01/25/1981	0:00:00	0.0
P_391659	01/26/1981	0:00:00	0.0
P_391659	01/27/1981	0:00:00	0.0
P_391659	01/28/1981	0:00:00	0.380314952755906
P_391659	01/29/1981	0:00:00	0.696456712598425
P_391659	01/30/1981	0:00:00	0.8338582795275591
P_391659	01/31/1981	0:00:00	0.00708661417322835
P_391659	02/01/1981	0:00:00	0.0
P_391659	02/02/1981	0:00:00	0.0
P_391659	02/03/1981	0:00:00	0.0
P_391659	02/04/1981	0:00:00	0.0
P_391659	02/05/1981	0:00:00	0.0
P_391659	02/06/1981	0:00:00	0.0
P_391659	02/07/1981	0:00:00	0.0
P_391659	02/08/1981	0:00:00	0.0
P_391659	02/09/1981	0:00:00	0.763385803149606
P_391659	02/10/1981	0:00:00	0.145275594488189
P_391659	02/11/1981	0:00:00	0.0
P_391659	02/12/1981	0:00:00	0.0
P_391659	02/13/1981	0:00:00	0.0
P_391659	02/14/1981	0:00:00	0.0
P_391659	02/15/1981	0:00:00	0.0
P_391659	02/16/1981	0:00:00	0.0
P_391659	02/17/1981	0:00:00	0.0
P_391659	02/18/1981	0:00:00	0.0
P_391659	02/19/1981	0:00:00	0.0
P_391659	02/20/1981	0:00:00	0.0
P_391659	02/21/1981	0:00:00	0.0
P_391659	02/22/1981	0:00:00	0.0
P_391659	02/23/1981	0:00:00	0.0
P_391659	02/24/1981	0:00:00	0.0
P_391659	02/25/1981	0:00:00	0.0
P_391659	02/26/1981	0:00:00	0.39724410236220503
P_391659	02/27/1981	0:00:00	0.00236220472440945
P_391659	02/28/1981	0:00:00	0.0
P_391659	03/01/1981	0:00:00	0.47716535039370095
P_391659	03/02/1981	0:00:00	1.18385825590551
P_391659	03/03/1981	0:00:00	0.551181102362205
P_391659	03/04/1981	0:00:00	0.0011811023622047198
P_391659	03/05/1981	0:00:00	0.47834644094488205
P_391659	03/06/1981	0:00:00	0.48622048818897606
P_391659	03/07/1981	0:00:00	0.00708661417322835
P_391659	03/08/1981	0:00:00	0.0
P_391659	03/09/1981	0:00:00	0.0
P_391659	03/10/1981	0:00:00	0.0
P_391659	03/11/1981	0:00:00	0.0
P_391659	03/12/1981	0:00:00	0.0
P_391659	03/13/1981	0:00:00	0.0
P_391659	03/14/1981	0:00:00	0.0
P_391659	03/15/1981	0:00:00	0.0
P_391659	03/16/1981	0:00:00	0.0
P_391659	03/17/1981	0:00:00	0.0
P_391659	03/18/1981	0:00:00	0.0
P_391659	03/19/1981	0:00:00	0.0
P_391659	03/20/1981	0:00:00	0.5208661220472439
P_391659	03/21/1981	0:00:00	0.037007874015748
P_391659	03/22/1981	0:00:00	0.0
P_391659	03/23/1981	0:00:00	0.0
P_391659	03/24/1981	0:00:00	0.0
P_391659	03/25/1981	0:00:00	0.0
P_391659	03/26/1981	0:00:00	0.00551181102362205
P_391659	03/27/1981	0:00:00	0.0031496062992126
P_391659	03/28/1981	0:00:00	0.0
P_391659	03/29/1981	0:00:00	0.0
P_391659	03/30/1981	0:00:00	0.0
P_391659	03/31/1981	0:00:00	0.0
P_391659	04/01/1981	0:00:00	0.0
P_391659	04/02/1981	0:00:00	0.0
P_391659	04/03/1981	0:00:00	0.065748031496063
P_391659	04/04/1981	0:00:00	0.0
P_391659	04/05/1981	0:00:00	0.0
P_391659	04/06/1981	0:00:00	0.0
P_391659	04/07/1981	0:00:00	0.0
P_391659	04/08/1981	0:00:00	0.0
P_391659	04/09/1981	0:00:00	0.0
P_391659	04/10/1981	0:00:00	0.0
P_391659	04/11/1981	0:00:00	0.0
P_391659	04/12/1981	0:00:00	0.0
P_391659	04/13/1981	0:00:00	0.0
P_391659	04/14/1981	0:00:00	0.0
P_391659	04/15/1981	0:00:00	0.0
P_391659	04/16/1981	0:00:00	0.0
P_391659	04/17/1981	0:00:00	0.0
P_391659	04/18/1981	0:00:00	0.0
P_391659	04/19/1981	0:00:00	0.22086614566929103
P_391659	04/20/1981	0:00:00	0.127165354330709
P_391659	04/21/1981	0:00:00	0.00078740157480315
P_391659	04/22/1981	0:00:00	0.0
P_391659	04/23/1981	0:00:00	0.0
P_391659	04/24/1981	0:00:00	0.0
P_391659	04/25/1981	0:00:00	0.0
P_391659	04/26/1981	0:00:00	0.0
P_391659	04/27/1981	0:00:00	0.0
P_391659	04/28/1981	0:00:00	0.0
P_391659	04/29/1981	0:00:00	0.0
P_391659	04/30/1981	0:00:00	0.0
P_391659	05/01/1981	0:00:00	0.0
P_391659	05/02/1981	0:00:00	0.0
P_391659	05/03/1981	0:00:00	0.0
P_391659	05/04/1981	0:00:00	0.0
P_391659	05/05/1981	0:00:00	0.0
P_391659	05/06/1981	0:00:00	0.0
P_391659	05/07/1981	0:00:00	0.0
P_391659	05/08/1981	0:00:00	0.0
P_391659	05/09/1981	0:00:00	0.0
P_391659	05/10/1981	0:00:00	0.0
P_391659	05/11/1981	0:00:00	0.0
P_391659	05/12/1981	0:00:00	0.0
P_391659	05/13/1981	0:00:00	0.0
P_391659	05/14/1981	0:00:00	0.0
P_391659	05/15/1981	0:00:00	0.0
P_391659	05/16/1981	0:00:00	0.0
P_391659	05/17/1981	0:00:00	0.0
P_391659	05/18/1981	0:00:00	0.0
P_391659	05/19/1981	0:00:00	0.0
P_391659	05/20/1981	0:00:00	0.0
P_391659	05/21/1981	0:00:00	0.0
P_391659	05/22/1981	0:00:00	0.0
P_391659	05/23/1981	0:00:00	0.0
P_391659	05/24/1981	0:00:00	0.0
P_391659	05/25/1981	0:00:00	0.0
P_391659	05/26/1981	0:00:00	0.0
P_391659	05/27/1981	0:00:00	0.0
P_391659	05/28/1981	0:00:00	0.0
P_391659	05/29/1981	0:00:00	0.0
P_391659	05/30/1981	0:00:00	0.0
P_391659	05/31/1981	0:00:00	0.0
P_391659	06/01/1981	0:00:00	0.0
P_391659	06/02/1981	0:00:00	0.0
P_391659	06/03/1981	0:00:00	0.0
P_391659	06/04/1981	0:00:00	0.0
P_391659	06/05/1981	0:00:00	0.0
P_391659	06/06/1981	0:00:00	0.0
P_391659	06/07/1981	0:00:00	0.0
P_391659	06/08/1981	0:00:00	0.0
P_391659	06/09/1981	0:00:00	0.0
P_391659	06/10/1981	0:00:00	0.0
P_391659	06/11/1981	0:00:00	0.0
P_391659	06/12/1981	0:00:00	0.0
P_391659	06/13/1981	0:00:00	0.0
P_391659	06/14/1981	0:00:00	0.0
P_391659	06/15/1981	0:00:00	0.0
P_391659	06/16/1981	0:00:00	0.0
P_391659	06/17/1981	0:00:00	0.0
P_391659	06/18/1981	0:00:00	0.0
P_391659	06/19/1981	0:00:00	0.0
P_391659	06/20/1981	0:00:00	0.0
P_391659	06/21/1981	0:00:00	0.0
P_391659	06/22/1981	0:00:00	0.0
P_391659	06/23/1981	0:00:00	0.0
P_391659	06/24/1981	0:00:00	0.0
P_391659	06/25/1981	0:00:00	0.0
P_391659	06/26/1981	0:00:00	0.0
P_391659	06/27/1981	0:00:00	0.0
P_391659	06/28/1981	0:00:00	0.0
P_391659	06/29/1981	0:00:00	0.0
P_391659	06/30/1981	0:00:00	0.0
P_391659	07/01/1981	0:00:00	0.0
P_391659	07/02/1981	0:00:00	0.0
P_391659	07/03/1981	0:00:00	0.0
P_391659	07/04/1981	0:00:00	0.0
P_391659	07/05/1981	0:00:00	0.0
P_391659	07/06/1981	0:00:00	0.0
P_391659	07/07/1981	0:00:00	0.0
P_391659	07/08/1981	0:00:00	0.0
P_391659	07/09/1981	0:00:00	0.0
P_391659	07/10/1981	0:00:00	0.0
P_391659	07/11/1981	0:00:00	0.0
P_391659	07/12/1981	0:00:00	0.0
P_391659	07/13/1981	0:00:00	0.0
P_391659	07/14/1981	0:00:00	0.0
P_391659	07/15/1981	0:00:00	0.0
P_391659	07/16/1981	0:00:00	0.0
P_391659	07/17/1981	0:00:00	0.0
P_391659	07/18/1981	0:00:00	0.0
P_391659	07/19/1981	0:00:00	0.0
P_391659	07/20/1981	0:00:00	0.0
P_391659	07/21/1981	0:00:00	0.0
P_391659	07/22/1981	0:00:00	0.0
P_391659	07/23/1981	0:00:00	0.0
P_391659	07/24/1981	0:00:00	0.0
P_391659	07/25/1981	0:00:00	0.0
P_391659	07/26/1981	0:00:00	0.0
P_391659	07/27/1981	0:00:00	0.0
P_391659	07/28/1981	0:00:00	0.0
P_391659	07/29/1981	0:00:00	0.0
P_391659	07/30/1981	0:00:00	0.0
P_391659	07/31/1981	0:00:00	0.0
P_391659	08/01/1981	0:00:00	0.0
P_391659	08/02/1981	0:00:00	0.0
P_391659	08/03/1981	0:00:00	0.0
P_391659	08/04/1981	0:00:00	0.0
P_391659	08/05/1981	0:00:00	0.0
P_391659	08/06/1981	0:00:00	0.0
P_391659	08/07/1981	0:00:00	0.0
P_391659	08/08/1981	0:00:00	0.0
P_391659	08/09/1981	0:00:00	0.0
P_391659	08/10/1981	0:00:00	0.0
P_391659	08/11/1981	0:00:00	0.0
P_391659	08/12/1981	0:00:00	0.0
P_391659	08/13/1981	0:00:00	0.0
P_391659	08/14/1981	0:00:00	0.0
P_391659	08/15/1981	0:00:00	0.0
P_391659	08/16/1981	0:00:00	0.0
P_391659	08/17/1981	0:00:00	0.0
P_391659	08/18/1981	0:00:00	0.0
P_391659	08/19/1981	0:00:00	0.0
P_391659	08/20/1981	0:00:00	0.0
P_391659	08/21/1981	0:00:00	0.0
P_391659	08/22/1981	0:00:00	0.0
P_391659	08/23/1981	0:00:00	0.0
P_391659	08/24/1981	0:00:00	0.0
P_391659	08/25/1981	0:00:00	0.0
P_391659	08/26/1981	0:00:00	0.0
P_391659	08/27/1981	0:00:00	0.0
P_391659	08/28/1981	0:00:00	0.0
P_391659	08/29/1981	0:00:00	0.0
P_391659	08/30/1981	0:00:00	0.0
P_391659	08/31/1981	0:00:00	0.0
P_391659	09/01/1981	0:00:00	0.0
P_391659	09/02/1981	0:00:00	0.0
P_391659	09/03/1981	0:00:00	0.0
P_391659	09/04/1981	0:00:00	0.0
P_391659	09/05/1981	0:00:00	0.0
P_391659	09/06/1981	0:00:00	0.0
P_391659	09/07/1981	0:00:00	0.0
P_391659	09/08/1981	0:00:00	0.0
P_391659	09/09/1981	0:00:00	0.0
P_391659	09/10/1981	0:00:00	0.0
P_391659	09/11/1981	0:00:00	0.0
P_391659	09/12/1981	0:00:00	0.0
P_391659	09/13/1981	0:00:00	0.0
P_391659	09/14/1981	0:00:00	0.0
P_391659	09/15/1981	0:00:00	0.0
P_391659	09/16/1981	0:00:00	0.0
P_391659	09/17/1981	0:00:00	0.0
P_391659	09/18/1981	0:00:00	0.0
P_391659	09/19/1981	0:00:00	0.0
P_391659	09/20/1981	0:00:00	0.0
P_391659	09/21/1981	0:00:00	0.0
P_391659	09/22/1981	0:00:00	0.0
P_391659	09/23/1981	0:00:00	0.0
P_391659	09/24/1981	0:00:00	0.0
P_391659	09/25/1981	0:00:00	0.0
P_391659	09/26/1981	0:00:00	0.0
P_391659	09/27/1981	0:00:00	0.0
P_391659	09/28/1981	0:00:00	0.0
P_391659	09/29/1981	0:00:00	0.0
P_391659	09/30/1981	0:00:00	0.0
P_391659	10/01/1981	0:00:00	0.17165354724409398
P_391659	10/02/1981	0:00:00	0.3669291220472439
P_391659	10/03/1981	0:00:00	0.000393700787401575
P_391659	10/04/1981	0:00:00	0.0
P_391659	10/05/1981	0:00:00	0.0
P_391659	10/06/1981	0:00:00	0.0
P_391659	10/07/1981	0:00:00	0.0
P_391659	10/08/1981	0:00:00	0.0
P_391659	10/09/1981	0:00:00	0.0
P_391659	10/10/1981	0:00:00	0.0
P_391659	10/11/1981	0:00:00	0.0
P_391659	10/12/1981	0:00:00	0.0
P_391659	10/13/1981	0:00:00	0.0
P_391659	10/14/1981	0:00:00	0.0
P_391659	10/15/1981	0:00:00	0.0
P_391659	10/16/1981	0:00:00	0.0
P_391659	10/17/1981	0:00:00	0.0
P_391659	10/18/1981	0:00:00	0.0
P_391659	10/19/1981	0:00:00	0.0
P_391659	10/20/1981	0:00:00	0.0
P_391659	10/21/1981	0:00:00	0.0
P_391659	10/22/1981	0:00:00	0.0
P_391659	10/23/1981	0:00:00	0.0
P_391659	10/24/1981	0:00:00	0.0
P_391659	10/25/1981	0:00:00	0.0
P_391659	10/26/1981	0:00:00	0.0
P_391659	10/27/1981	0:00:00	0.0
P_391659	10/28/1981	0:00:00	0.0
P_391659	10/29/1981	0:00:00	0.005118110236220471
P_391659	10/30/1981	0:00:00	0.0
P_391659	10/31/1981	0:00:00	0.0
P_391659	11/01/1981	0:00:00	0.0
P_391659	11/02/1981	0:00:00	0.0
P_391659	11/03/1981	0:00:00	0.0
P_391659	11/04/1981	0:00:00	0.0
P_391659	11/05/1981	0:00:00	0.0
P_391659	11/06/1981	0:00:00	0.0
P_391659	11/07/1981	0:00:00	0.0
P_391659	11/08/1981	0:00:00	0.0
P_391659	11/09/1981	0:00:00	0.0
P_391659	11/10/1981	0:00:00	0.0
P_391659	11/11/1981	0:00:00	0.0
P_391659	11/12/1981	0:00:00	0.0
P_391659	11/13/1981	0:00:00	0.0
P_391659	11/14/1981	0:00:00	0.0
P_391659	11/15/1981	0:00:00	0.0
P_391659	11/16/1981	0:00:00	0.0
P_391659	11/17/1981	0:00:00	0.0
P_391659	11/18/1981	0:00:00	0.0
P_391659	11/19/1981	0:00:00	0.0
P_391659	11/20/1981	0:00:00	0.0
P_391659	11/21/1981	0:00:00	0.0
P_391659	11/22/1981	0:00:00	0.0
P_391659	11/23/1981	0:00:00	0.0
P_391659	11/24/1981	0:00:00	0.0
P_391659	11/25/1981	0:00:00	0.0
P_391659	11/26/1981	0:00:00	0.0
P_391659	11/27/1981	0:00:00	0.214566921259843
P_391659	11/28/1981	0:00:00	1.28385829133858
P_391659	11/29/1981	0:00:00	0.627559039370079
P_391659	11/30/1981	0:00:00	0.0
P_391659	12/01/1981	0:00:00	0.0
P_391659	12/02/1981	0:00:00	0.0
P_391659	12/03/1981	0:00:00	0.0
P_391659	12/04/1981	0:00:00	0.0
P_391659	12/05/1981	0:00:00	0.0
P_391659	12/06/1981	0:00:00	0.0
P_391659	12/07/1981	0:00:00	0.0
P_391659	12/08/1981	0:00:00	0.0
P_391659	12/09/1981	0:00:00	0.0
P_391659	12/10/1981	0:00:00	0.0
P_391659	12/11/1981	0:00:00	0.0
P_391659	12/12/1981	0:00:00	0.0
P_391659	12/13/1981	0:00:00	0.0
P_391659	12/14/1981	0:00:00	0.0
P_391659	12/15/1981	0:00:00	0.0
P_391659	12/16/1981	0:00:00	0.0
P_391659	12/17/1981	0:00:00	0.0
P_391659	12/18/1981	0:00:00	0.0
P_391659	12/19/1981	0:00:00	0.0
P_391659	12/20/1981	0:00:00	0.0
P_391659	12/21/1981	0:00:00	0.0
P_391659	12/22/1981	0:00:00	0.0
P_391659	12/23/1981	0:00:00	0.0
P_391659	12/24/1981	0:00:00	0.0
P_391659	12/25/1981	0:00:00	0.0
P_391659	12/26/1981	0:00:00	0.0
P_391659	12/27/1981	0:00:00	0.0
P_391659	12/28/1981	0:00:00	0.0
P_391659	12/29/1981	0:00:00	0.0
P_391659	12/30/1981	0:00:00	0.0692913385826772
P_391659	12/31/1981	0:00:00	0.431102354330709
P_391659	01/01/1982	0:00:00	0.13937007874015803
P_391659	01/02/1982	0:00:00	0.54448818503937
P_391659	01/03/1982	0:00:00	0.0696850393700788
P_391659	01/04/1982	0:00:00	0.0
P_391659	01/05/1982	0:00:00	0.32716537007874
P_391659	01/06/1982	0:00:00	0.352755905511811
P_391659	01/07/1982	0:00:00	0.0011811023622047198
P_391659	01/08/1982	0:00:00	0.0
P_391659	01/09/1982	0:00:00	0.0
P_391659	01/10/1982	0:00:00	0.0
P_391659	01/11/1982	0:00:00	0.0
P_391659	01/12/1982	0:00:00	0.0
P_391659	01/13/1982	0:00:00	0.0
P_391659	01/14/1982	0:00:00	0.0
P_391659	01/15/1982	0:00:00	0.0
P_391659	01/16/1982	0:00:00	0.0
P_391659	01/17/1982	0:00:00	0.0
P_391659	01/18/1982	0:00:00	0.0
P_391659	01/19/1982	0:00:00	0.0
P_391659	01/20/1982	0:00:00	0.261417318897638
P_391659	01/21/1982	0:00:00	0.77401574015748
P_391659	01/22/1982	0:00:00	0.14370079133858302
P_391659	01/23/1982	0:00:00	0.0
P_391659	01/24/1982	0:00:00	0.0
P_391659	01/25/1982	0:00:00	0.0
P_391659	01/26/1982	0:00:00	0.0
P_391659	01/27/1982	0:00:00	0.0
P_391659	01/28/1982	0:00:00	0.0
P_391659	01/29/1982	0:00:00	0.0
P_391659	01/30/1982	0:00:00	0.00078740157480315
P_391659	01/31/1982	0:00:00	0.0
P_391659	02/01/1982	0:00:00	0.0
P_391659	02/02/1982	0:00:00	0.0
P_391659	02/03/1982	0:00:00	0.0
P_391659	02/04/1982	0:00:00	0.0
P_391659	02/05/1982	0:00:00	0.0
P_391659	02/06/1982	0:00:00	0.0
P_391659	02/07/1982	0:00:00	0.0
P_391659	02/08/1982	0:00:00	0.0
P_391659	02/09/1982	0:00:00	0.0
P_391659	02/10/1982	0:00:00	0.0
P_391659	02/11/1982	0:00:00	0.370472433070866
P_391659	02/12/1982	0:00:00	0.012992125984252
P_391659	02/13/1982	0:00:00	0.0
P_391659	02/14/1982	0:00:00	0.0
P_391659	02/15/1982	0:00:00	0.0
P_391659	02/16/1982	0:00:00	0.0
P_391659	02/17/1982	0:00:00	0.0338582677165354
P_391659	02/18/1982	0:00:00	0.0
P_391659	02/19/1982	0:00:00	0.0
P_391659	02/20/1982	0:00:00	0.0
P_391659	02/21/1982	0:00:00	0.0
P_391659	02/22/1982	0:00:00	0.0
P_391659	02/23/1982	0:00:00	0.0
P_391659	02/24/1982	0:00:00	0.0
P_391659	02/25/1982	0:00:00	0.0
P_391659	02/26/1982	0:00:00	0.0
P_391659	02/27/1982	0:00:00	0.0
P_391659	02/28/1982	0:00:00	0.0
P_391659	03/01/1982	0:00:00	0.0
P_391659	03/02/1982	0:00:00	0.21299211811023605
P_391659	03/03/1982	0:00:00	0.18937007480315
P_391659	03/04/1982	0:00:00	0.0
P_391659	03/05/1982	0:00:00	0.0
P_391659	03/06/1982	0:00:00	0.0
P_391659	03/07/1982	0:00:00	0.0
P_391659	03/08/1982	0:00:00	0.0
P_391659	03/09/1982	0:00:00	0.0
P_391659	03/10/1982	0:00:00	0.0
P_391659	03/11/1982	0:00:00	0.0
P_391659	03/12/1982	0:00:00	0.23070866535433102
P_391659	03/13/1982	0:00:00	0.00433070866141732
P_391659	03/14/1982	0:00:00	0.0
P_391659	03/15/1982	0:00:00	0.714173204724409
P_391659	03/16/1982	0:00:00	0.0929133818897638
P_391659	03/17/1982	0:00:00	0.712598440944882
P_391659	03/18/1982	0:00:00	1.35826771653543
P_391659	03/19/1982	0:00:00	0.24566928346456698
P_391659	03/20/1982	0:00:00	0.0011811023622047198
P_391659	03/21/1982	0:00:00	0.0
P_391659	03/22/1982	0:00:00	0.0
P_391659	03/23/1982	0:00:00	0.0
P_391659	03/24/1982	0:00:00	0.0
P_391659	03/25/1982	0:00:00	0.0
P_391659	03/26/1982	0:00:00	0.161811027559055
P_391659	03/27/1982	0:00:00	0.0720472440944882
P_391659	03/28/1982	0:00:00	0.0
P_391659	03/29/1982	0:00:00	0.0354330708661417
P_391659	03/30/1982	0:00:00	0.259055114173228
P_391659	03/31/1982	0:00:00	0.00708661417322835
P_391659	04/01/1982	0:00:00	0.6114173110236221
P_391659	04/02/1982	0:00:00	0.38425197637795294
P_391659	04/03/1982	0:00:00	0.0031496062992126
P_391659	04/04/1982	0:00:00	0.0
P_391659	04/05/1982	0:00:00	0.0
P_391659	04/06/1982	0:00:00	0.0
P_391659	04/07/1982	0:00:00	0.0
P_391659	04/08/1982	0:00:00	0.0
P_391659	04/09/1982	0:00:00	0.0
P_391659	04/10/1982	0:00:00	0.0
P_391659	04/11/1982	0:00:00	0.0271653543307087
P_391659	04/12/1982	0:00:00	0.41377953543307106
P_391659	04/13/1982	0:00:00	0.00354330708661417
P_391659	04/14/1982	0:00:00	0.0
P_391659	04/15/1982	0:00:00	0.0
P_391659	04/16/1982	0:00:00	0.0
P_391659	04/17/1982	0:00:00	0.0
P_391659	04/18/1982	0:00:00	0.0
P_391659	04/19/1982	0:00:00	0.0
P_391659	04/20/1982	0:00:00	0.0
P_391659	04/21/1982	0:00:00	0.0
P_391659	04/22/1982	0:00:00	0.0
P_391659	04/23/1982	0:00:00	0.0
P_391659	04/24/1982	0:00:00	0.0
P_391659	04/25/1982	0:00:00	0.0
P_391659	04/26/1982	0:00:00	0.0
P_391659	04/27/1982	0:00:00	0.0
P_391659	04/28/1982	0:00:00	0.0
P_391659	04/29/1982	0:00:00	0.0
P_391659	04/30/1982	0:00:00	0.0
P_391659	05/01/1982	0:00:00	0.0
P_391659	05/02/1982	0:00:00	0.0
P_391659	05/03/1982	0:00:00	0.0
P_391659	05/04/1982	0:00:00	0.0
P_391659	05/05/1982	0:00:00	0.126771653543307
P_391659	05/06/1982	0:00:00	0.0
P_391659	05/07/1982	0:00:00	0.0
P_391659	05/08/1982	0:00:00	0.0
P_391659	05/09/1982	0:00:00	0.0
P_391659	05/10/1982	0:00:00	0.0
P_391659	05/11/1982	0:00:00	0.0
P_391659	05/12/1982	0:00:00	0.00393700787401575
P_391659	05/13/1982	0:00:00	0.0
P_391659	05/14/1982	0:00:00	0.0
P_391659	05/15/1982	0:00:00	0.0
P_391659	05/16/1982	0:00:00	0.0
P_391659	05/17/1982	0:00:00	0.0
P_391659	05/18/1982	0:00:00	0.0
P_391659	05/19/1982	0:00:00	0.0
P_391659	05/20/1982	0:00:00	0.0
P_391659	05/21/1982	0:00:00	0.0
P_391659	05/22/1982	0:00:00	0.0
P_391659	05/23/1982	0:00:00	0.0
P_391659	05/24/1982	0:00:00	0.0
P_391659	05/25/1982	0:00:00	0.0
P_391659	05/26/1982	0:00:00	0.0
P_391659	05/27/1982	0:00:00	0.0
P_391659	05/28/1982	0:00:00	0.0
P_391659	05/29/1982	0:00:00	0.0
P_391659	05/30/1982	0:00:00	0.0
P_391659	05/31/1982	0:00:00	0.0
P_391659	06/01/1982	0:00:00	0.0
P_391659	06/02/1982	0:00:00	0.0
P_391659	06/03/1982	0:00:00	0.0
P_391659	06/04/1982	0:00:00	0.0
P_391659	06/05/1982	0:00:00	0.0
P_391659	06/06/1982	0:00:00	0.0
P_391659	06/07/1982	0:00:00	0.0
P_391659	06/08/1982	0:00:00	0.0
P_391659	06/09/1982	0:00:00	0.0
P_391659	06/10/1982	0:00:00	0.0
P_391659	06/11/1982	0:00:00	0.0
P_391659	06/12/1982	0:00:00	0.0
P_391659	06/13/1982	0:00:00	0.0
P_391659	06/14/1982	0:00:00	0.0
P_391659	06/15/1982	0:00:00	0.0
P_391659	06/16/1982	0:00:00	0.0
P_391659	06/17/1982	0:00:00	0.0
P_391659	06/18/1982	0:00:00	0.0
P_391659	06/19/1982	0:00:00	0.0
P_391659	06/20/1982	0:00:00	0.0
P_391659	06/21/1982	0:00:00	0.0
P_391659	06/22/1982	0:00:00	0.0
P_391659	06/23/1982	0:00:00	0.0
P_391659	06/24/1982	0:00:00	0.0
P_391659	06/25/1982	0:00:00	0.0
P_391659	06/26/1982	0:00:00	0.0
P_391659	06/27/1982	0:00:00	0.0
P_391659	06/28/1982	0:00:00	0.0
P_391659	06/29/1982	0:00:00	0.0
P_391659	06/30/1982	0:00:00	0.0
P_391659	07/01/1982	0:00:00	0.0
P_391659	07/02/1982	0:00:00	0.0
P_391659	07/03/1982	0:00:00	0.0
P_391659	07/04/1982	0:00:00	0.0
P_391659	07/05/1982	0:00:00	0.0
P_391659	07/06/1982	0:00:00	0.0
P_391659	07/07/1982	0:00:00	0.0
P_391659	07/08/1982	0:00:00	0.0
P_391659	07/09/1982	0:00:00	0.0
P_391659	07/10/1982	0:00:00	0.0
P_391659	07/11/1982	0:00:00	0.0
P_391659	07/12/1982	0:00:00	0.0
P_391659	07/13/1982	0:00:00	0.0
P_391659	07/14/1982	0:00:00	0.0
P_391659	07/15/1982	0:00:00	0.0
P_391659	07/16/1982	0:00:00	0.0
P_391659	07/17/1982	0:00:00	0.0
P_391659	07/18/1982	0:00:00	0.0
P_391659	07/19/1982	0:00:00	0.0
P_391659	07/20/1982	0:00:00	0.0
P_391659	07/21/1982	0:00:00	0.0
P_391659	07/22/1982	0:00:00	0.0
P_391659	07/23/1982	0:00:00	0.0
P_391659	07/24/1982	0:00:00	0.0
P_391659	07/25/1982	0:00:00	0.0
P_391659	07/26/1982	0:00:00	0.0
P_391659	07/27/1982	0:00:00	0.0
P_391659	07/28/1982	0:00:00	0.0
P_391659	07/29/1982	0:00:00	0.0
P_391659	07/30/1982	0:00:00	0.0
P_391659	07/31/1982	0:00:00	0.0
P_391659	08/01/1982	0:00:00	0.0
P_391659	08/02/1982	0:00:00	0.0
P_391659	08/03/1982	0:00:00	0.0
P_391659	08/04/1982	0:00:00	0.0
P_391659	08/05/1982	0:00:00	0.0
P_391659	08/06/1982	0:00:00	0.0
P_391659	08/07/1982	0:00:00	0.0
P_391659	08/08/1982	0:00:00	0.0
P_391659	08/09/1982	0:00:00	0.0
P_391659	08/10/1982	0:00:00	0.0
P_391659	08/11/1982	0:00:00	0.0
P_391659	08/12/1982	0:00:00	0.0
P_391659	08/13/1982	0:00:00	0.0
P_391659	08/14/1982	0:00:00	0.0
P_391659	08/15/1982	0:00:00	0.0
P_391659	08/16/1982	0:00:00	0.0
P_391659	08/17/1982	0:00:00	0.0
P_391659	08/18/1982	0:00:00	0.0
P_391659	08/19/1982	0:00:00	0.0
P_391659	08/20/1982	0:00:00	0.0
P_391659	08/21/1982	0:00:00	0.0
P_391659	08/22/1982	0:00:00	0.0
P_391659	08/23/1982	0:00:00	0.0
P_391659	08/24/1982	0:00:00	0.0
P_391659	08/25/1982	0:00:00	0.0
P_391659	08/26/1982	0:00:00	0.00078740157480315
P_391659	08/27/1982	0:00:00	0.0
P_391659	08/28/1982	0:00:00	0.0
P_391659	08/29/1982	0:00:00	0.0
P_391659	08/30/1982	0:00:00	0.0
P_391659	08/31/1982	0:00:00	0.0
P_391659	09/01/1982	0:00:00	0.0
P_391659	09/02/1982	0:00:00	0.0
P_391659	09/03/1982	0:00:00	0.0
P_391659	09/04/1982	0:00:00	0.0
P_391659	09/05/1982	0:00:00	0.0
P_391659	09/06/1982	0:00:00	0.0
P_391659	09/07/1982	0:00:00	0.0
P_391659	09/08/1982	0:00:00	0.0
P_391659	09/09/1982	0:00:00	0.0909448779527559
P_391659	09/10/1982	0:00:00	0.005118110236220471
P_391659	09/11/1982	0:00:00	0.0
P_391659	09/12/1982	0:00:00	0.0
P_391659	09/13/1982	0:00:00	0.0
P_391659	09/14/1982	0:00:00	0.0
P_391659	09/15/1982	0:00:00	0.00078740157480315
P_391659	09/16/1982	0:00:00	0.0
P_391659	09/17/1982	0:00:00	0.0
P_391659	09/18/1982	0:00:00	0.351181106299213
P_391659	09/19/1982	0:00:00	0.0
P_391659	09/20/1982	0:00:00	0.0
P_391659	09/21/1982	0:00:00	0.0
P_391659	09/22/1982	0:00:00	0.0
P_391659	09/23/1982	0:00:00	0.0
P_391659	09/24/1982	0:00:00	0.0
P_391659	09/25/1982	0:00:00	0.0
P_391659	09/26/1982	0:00:00	0.233464559055118
P_391659	09/27/1982	0:00:00	0.17637795275590604
P_391659	09/28/1982	0:00:00	0.0
P_391659	09/29/1982	0:00:00	0.0
P_391659	09/30/1982	0:00:00	0.0
P_391659	10/01/1982	0:00:00	0.0
P_391659	10/02/1982	0:00:00	0.0
P_391659	10/03/1982	0:00:00	0.0
P_391659	10/04/1982	0:00:00	0.0
P_391659	10/05/1982	0:00:00	0.0
P_391659	10/06/1982	0:00:00	0.0
P_391659	10/07/1982	0:00:00	0.0
P_391659	10/08/1982	0:00:00	0.0
P_391659	10/09/1982	0:00:00	0.0
P_391659	10/10/1982	0:00:00	0.0
P_391659	10/11/1982	0:00:00	0.0
P_391659	10/12/1982	0:00:00	0.0
P_391659	10/13/1982	0:00:00	0.0
P_391659	10/14/1982	0:00:00	0.0
P_391659	10/15/1982	0:00:00	0.0
P_391659	10/16/1982	0:00:00	0.0
P_391659	10/17/1982	0:00:00	0.0
P_391659	10/18/1982	0:00:00	0.0
P_391659	10/19/1982	0:00:00	0.0
P_391659	10/20/1982	0:00:00	0.0
P_391659	10/21/1982	0:00:00	0.0
P_391659	10/22/1982	0:00:00	0.0
P_391659	10/23/1982	0:00:00	0.0
P_391659	10/24/1982	0:00:00	0.0
P_391659	10/25/1982	0:00:00	0.0
P_391659	10/26/1982	0:00:00	0.0
P_391659	10/27/1982	0:00:00	0.18110235826771698
P_391659	10/28/1982	0:00:00	0.0
P_391659	10/29/1982	0:00:00	0.0
P_391659	10/30/1982	0:00:00	0.0
P_391659	10/31/1982	0:00:00	0.0015748031496063
P_391659	11/01/1982	0:00:00	0.000393700787401575
P_391659	11/02/1982	0:00:00	0.0
P_391659	11/03/1982	0:00:00	0.0
P_391659	11/04/1982	0:00:00	0.0
P_391659	11/05/1982	0:00:00	0.0
P_391659	11/06/1982	0:00:00	0.0
P_391659	11/07/1982	0:00:00	0.0
P_391659	11/08/1982	0:00:00	0.0
P_391659	11/09/1982	0:00:00	0.0
P_391659	11/10/1982	0:00:00	1.28661418503937
P_391659	11/11/1982	0:00:00	0.37283465748031497
P_391659	11/12/1982	0:00:00	0.0011811023622047198
P_391659	11/13/1982	0:00:00	0.0
P_391659	11/14/1982	0:00:00	0.0
P_391659	11/15/1982	0:00:00	0.0
P_391659	11/16/1982	0:00:00	0.0
P_391659	11/17/1982	0:00:00	0.0
P_391659	11/18/1982	0:00:00	0.0
P_391659	11/19/1982	0:00:00	0.147244094488189
P_391659	11/20/1982	0:00:00	0.108661417322835
P_391659	11/21/1982	0:00:00	0.0
P_391659	11/22/1982	0:00:00	0.0
P_391659	11/23/1982	0:00:00	0.0
P_391659	11/24/1982	0:00:00	0.0
P_391659	11/25/1982	0:00:00	0.0
P_391659	11/26/1982	0:00:00	0.0
P_391659	11/27/1982	0:00:00	0.0
P_391659	11/28/1982	0:00:00	0.0
P_391659	11/29/1982	0:00:00	0.0
P_391659	11/30/1982	0:00:00	0.986220440944882
P_391659	12/01/1982	0:00:00	1.05787404724409
P_391659	12/02/1982	0:00:00	0.0429133858267717
P_391659	12/03/1982	0:00:00	0.0
P_391659	12/04/1982	0:00:00	0.0
P_391659	12/05/1982	0:00:00	0.0
P_391659	12/06/1982	0:00:00	0.0
P_391659	12/07/1982	0:00:00	0.0
P_391659	12/08/1982	0:00:00	0.0
P_391659	12/09/1982	0:00:00	0.0
P_391659	12/10/1982	0:00:00	0.0
P_391659	12/11/1982	0:00:00	0.0
P_391659	12/12/1982	0:00:00	0.0
P_391659	12/13/1982	0:00:00	0.0
P_391659	12/14/1982	0:00:00	0.0
P_391659	12/15/1982	0:00:00	0.0
P_391659	12/16/1982	0:00:00	0.0
P_391659	12/17/1982	0:00:00	0.0
P_391659	12/18/1982	0:00:00	0.0
P_391659	12/19/1982	0:00:00	0.0
P_391659	12/20/1982	0:00:00	0.0
P_391659	12/21/1982	0:00:00	0.0
P_391659	12/22/1982	0:00:00	0.0
P_391659	12/23/1982	0:00:00	0.8330708582677171
P_391659	12/24/1982	0:00:00	0.12755905511811
P_391659	12/25/1982	0:00:00	0.0
P_391659	12/26/1982	0:00:00	0.0
P_391659	12/27/1982	0:00:00	0.0
P_391659	12/28/1982	0:00:00	0.0
P_391659	12/29/1982	0:00:00	0.0
P_391659	12/30/1982	0:00:00	0.0
P_391659	12/31/1982	0:00:00	0.0
P_391659	01/01/1983	0:00:00	0.0
P_391659	01/02/1983	0:00:00	0.0
P_391659	01/03/1983	0:00:00	0.0
P_391659	01/04/1983	0:00:00	0.0
P_391659	01/05/1983	0:00:00	0.0
P_391659	01/06/1983	0:00:00	0.0
P_391659	01/07/1983	0:00:00	0.0
P_391659	01/08/1983	0:00:00	0.0
P_391659	01/09/1983	0:00:00	0.0
P_391659	01/10/1983	0:00:00	0.0
P_391659	01/11/1983	0:00:00	0.0
P_391659	01/12/1983	0:00:00	0.0
P_391659	01/13/1983	0:00:00	0.0
P_391659	01/14/1983	0:00:00	0.0
P_391659	01/15/1983	0:00:00	0.0
P_391659	01/16/1983	0:00:00	0.0
P_391659	01/17/1983	0:00:00	0.0
P_391659	01/18/1983	0:00:00	0.0
P_391659	01/19/1983	0:00:00	0.17637795275590604
P_391659	01/20/1983	0:00:00	0.0728346456692913
P_391659	01/21/1983	0:00:00	0.0
P_391659	01/22/1983	0:00:00	0.0
P_391659	01/23/1983	0:00:00	1.28897644488189
P_391659	01/24/1983	0:00:00	0.341732295275591
P_391659	01/25/1983	0:00:00	0.48740157874015705
P_391659	01/26/1983	0:00:00	0.0291338582677165
P_391659	01/27/1983	0:00:00	0.28188975590551196
P_391659	01/28/1983	0:00:00	1.12047240551181
P_391659	01/29/1983	0:00:00	0.796062964566929
P_391659	01/30/1983	0:00:00	0.175984244094488
P_391659	01/31/1983	0:00:00	0.0
P_391659	02/01/1983	0:00:00	0.0
P_391659	02/02/1983	0:00:00	0.0
P_391659	02/03/1983	0:00:00	0.26732283464566897
P_391659	02/04/1983	0:00:00	0.021259842519685
P_391659	02/05/1983	0:00:00	0.0
P_391659	02/06/1983	0:00:00	0.28307087007874
P_391659	02/07/1983	0:00:00	0.160629917322835
P_391659	02/08/1983	0:00:00	0.0594488188976378
P_391659	02/09/1983	0:00:00	0.0125984251968504
P_391659	02/10/1983	0:00:00	0.0
P_391659	02/11/1983	0:00:00	0.0
P_391659	02/12/1983	0:00:00	0.0
P_391659	02/13/1983	0:00:00	0.0011811023622047198
P_391659	02/14/1983	0:00:00	0.005118110236220471
P_391659	02/15/1983	0:00:00	0.0